version 2
run Exp11-0-20190318-13:32:38-4144
attr configname Exp11
attr datetime 20190318-13:32:38
attr experiment Exp11
attr inifile omnetpp.ini
attr iterationvars ""
attr iterationvarsf ""
attr measurement ""
attr network DiffservNetwork
attr processid 4144
attr repetition 0
attr replication #0
attr resultdir results
attr runnumber 0
attr seedset 0
param **.R?.ppp[*].queue.wrr.weights "\"10 9 8 7 0\""
param **.H{1..8}.numApps 2
param **.H{1..4}.app[0].typename "\"UdpBasicBurst\""
param **.H1.app[0].destAddresses "\"H5\""
param **.H2.app[0].destAddresses "\"H6\""
param **.H3.app[0].destAddresses "\"H7\""
param **.H4.app[0].destAddresses "\"H8\""
param **.H{1..4}.app[0].chooseDestAddrMode "\"once\""
param **.H{1..4}.app[0].destPort 2000
param **.H{1..4}.app[0].startTime uniform(1s,2s)
param **.H{1..4}.app[0].stopTime 1200s
param **.H{1..4}.app[0].messageLength 172B
param **.H{1..4}.app[0].burstDuration exponential(0.352s)
param **.H{1..4}.app[0].sleepDuration exponential(0.650s)
param **.H{1..4}.app[0].sendInterval 20ms
param **.H{5..8}.app[0].typename "\"UdpBasicBurst\""
param **.H{5..8}.app[0].localPort 2000
param **.H{5..8}.app[0].delayLimit 0ms
param **.H{5..8}.app[0].destAddresses "\"\""
param **.H{5..8}.app[0].chooseDestAddrMode "\"once\""
param **.H{5..8}.app[0].destPort 0
param **.H{5..8}.app[0].messageLength 0B
param **.H{5..8}.app[0].burstDuration 0s
param **.H{5..8}.app[0].sleepDuration 0s
param **.H{5..8}.app[0].sendInterval 0ms
param **.H{1..4}.app[1].typename "\"UdpBasicApp\""
param **.H{1..4}.app[1].destPort 1000
param **.H{1..4}.app[1].startTime uniform(1s,2s)
param **.H{1..4}.app[1].stopTime 1200s
param **.H{1..4}.app[1].sendInterval 40ms
param **.H{1..4}.app[1].messageLength 500B
param **.H1.app[1].destAddresses "\"H5\""
param **.H2.app[1].destAddresses "\"H6\""
param **.H3.app[1].destAddresses "\"H7\""
param **.H4.app[1].destAddresses "\"H8\""
param **.H{5..8}.app[1].typename "\"UdpSink\""
param **.H{5..8}.app[1].localPort 1000
param **.edgeDatarate 500kbps
param **.coreDatarate 500kbps
param **.R?.eth[*].ingressTC.typename "\"TC1\""
param **.ingressTC.numClasses 4
param **.ingressTC.classifier.filters "xmldoc(\"filters.xml\", \"//experiment[@id='default']\")"
param **.ingressTC.marker.dscps "\"AF11 AF21 AF31 AF41 BE\""
param **.R?.ppp[*].queue.typename "\"DSQueue1\""
param **.R?.ppp[*].queue.frameCapacity 100
param **.queue.typename "\"EtherQosQueue\""
param **.queue.dataQueue.typename "\"DropTailQueue\""
param **.queue.frameCapacity 100
param **.queue.dataQueue.frameCapacity 100

vector 0 DiffservNetwork.R2.ppp[2].queue.af4xQueue queueingTime:vector ETV
attr interpolationmode none
attr title "queueing time, vector"
vector 1 DiffservNetwork.R2.ppp[2].queue.af1xQueue queueingTime:vector ETV
attr interpolationmode none
attr title "queueing time, vector"
vector 2 DiffservNetwork.R2.ppp[2].queue.af3xQueue queueingTime:vector ETV
attr interpolationmode none
attr title "queueing time, vector"
vector 3 DiffservNetwork.H5.app[1] endToEndDelay:vector ETV
attr interpolationmode none
attr source dataAge(packetReceived)
attr title "end-to-end delay, vector"
attr unit s
vector 4 DiffservNetwork.R2.ppp[2].queue.af2xQueue queueingTime:vector ETV
attr interpolationmode none
attr title "queueing time, vector"
vector 5 DiffservNetwork.H6.app[1] endToEndDelay:vector ETV
attr interpolationmode none
attr source dataAge(packetReceived)
attr title "end-to-end delay, vector"
attr unit s
vector 6 DiffservNetwork.H7.app[1] endToEndDelay:vector ETV
attr interpolationmode none
attr source dataAge(packetReceived)
attr title "end-to-end delay, vector"
attr unit s
vector 7 DiffservNetwork.H8.app[1] endToEndDelay:vector ETV
attr interpolationmode none
attr source dataAge(packetReceived)
attr title "end-to-end delay, vector"
attr unit s
0	111	1.550225077383	0
0	257	1.570213357383	0
0	359	1.590213357383	0
0	566	1.618633036389	0.007215766011
0	740	1.631405550378	0
0	945	1.658633036389	0.007227486011
0	1097	1.671405550378	0
0	1302	1.698633036389	0.007227486011
0	1454	1.711405550378	0
0	1766	1.745257036389	0.013851486011
0	2820	1.882377036389	0.024520879132
0	3297	1.943673036389	0.045816879132
0	3374	1.960793036389	0.022936879132
0	3527	1.986473036389	0.008616879132
0	3732	2.02343016409	0.005574006833
0	3936	2.06343016409	0.005574006833
0	4140	2.10343016409	0.005574006833
0	4344	2.14343016409	0.005574006833
0	4548	2.18343016409	0.005574006833
0	4752	2.22343016409	0.005574006833
0	5058	2.26674216409	0.008886006833
0	5337	2.30429416409	0.006438006833
0	6773	2.44482216409	0.106966006833
0	6871	2.45338216409	0.075526006833
0	6964	2.46194216409	0.080774006833
0	6976	2.46525416409	0.066017562243
0	7019	2.46856616409	0.050710006833
0	7193	2.48568616409	0.064518006833
0	7242	2.48899816409	0.049761562243
0	8621	2.61240616409	0.154550006833
0	8710	2.62096616409	0.159798006833
0	8730	2.62427816409	0.145041562243
0	8772	2.62759016409	0.129734006833
0	8943	2.64471016409	0.143542006833
0	8979	2.64802216409	0.128785562243
0	9018	2.65133416409	0.113478006833
0	10236	2.80429416409	0.263126006833
0	10297	2.80760616409	0.248369562243
0	10319	2.81091816409	0.233062006833
0	10387	2.81947816409	0.238310006833
0	10413	2.82279016409	0.223553562243
0	10455	2.82610216409	0.208246006833
0	10556	2.84322216409	0.222054006833
0	11629	3.00667816409	0.367441562243
0	11661	3.00999016409	0.352134006833
0	11717	3.01855016409	0.357382006833
0	11743	3.02186216409	0.342625562243
0	11765	3.02517416409	0.327318006833
0	11861	3.04229416409	0.341126006833
0	11897	3.04560616409	0.307750006833
0	12569	3.14832616409	0.370470006833
0	12764	3.17400616409	0.356150006833
0	13107	3.21487016409	0.357014006833
0	13424	3.25242216409	0.354566006833
0	13515	3.26954216409	0.331686006833
0	13590	3.27810216409	0.300246006833
0	13768	3.30378216409	0.285926006833
0	14406	3.38357416409	0.325718006833
0	14437	3.39213416409	0.30522940447
0	14489	3.39544616409	0.297590006833
0	14622	3.41256616409	0.300704124241
0	14713	3.42443816409	0.29753340447
0	14739	3.42775016409	0.289894006833
0	14811	3.43631016409	0.284448124241
0	15388	3.51610216409	0.34919740447
0	15410	3.51941416409	0.341558006833
0	15581	3.54509416409	0.352054006833
0	15594	3.54840616409	0.34150140447
0	15623	3.55171816409	0.333862006833
0	15699	3.56027816409	0.327238006833
0	15784	3.57215016409	0.314294006833
0	16993	3.72042216409	0.422566006833
0	17248	3.74941416409	0.411558006833
0	17312	3.75797416409	0.380118006833
0	17384	3.76653416409	0.348678006833
0	17435	3.77509416409	0.317238006833
0	17546	3.79221416409	0.319174006833
0	17578	3.79552616409	0.297670006833
0	18892	3.93799016409	0.400134006833
0	19086	3.96367016409	0.385814006833
0	19165	3.97223016409	0.391062006833
0	19177	3.97554216409	0.379006614473
0	19249	3.97885416409	0.360998006833
0	19310	3.98741416409	0.366246006833
0	19403	3.99928616409	0.362750614473
0	21059	4.14450216409	0.486646006833
0	21150	4.15306216409	0.491894006833
0	21183	4.15637416409	0.479838614473
0	21205	4.15968616409	0.461830006833
0	21309	4.16824616409	0.467078006833
0	21356	4.17155816409	0.455022614473
0	21378	4.17487016409	0.437014006833
0	22869	4.31483816409	0.573670006833
0	22877	4.31815016409	0.540294006833
0	22971	4.32671016409	0.508854006833
0	23070	4.33527016409	0.477414006833
0	23153	4.34383016409	0.445974006833
0	23230	4.35239016409	0.414534006833
0	23293	4.36095016409	0.383094006833
0	24982	4.52715816409	0.509302006833
0	25033	4.53571816409	0.477862006833
0	25118	4.54427816409	0.446422006833
0	25154	4.55283816409	0.414982006833
0	25208	4.56139816409	0.383542006833
0	25296	4.56995816409	0.352102006833
0	25352	4.57851816409	0.320662006833
0	26716	4.74472616409	0.446870006833
0	26806	4.75328616409	0.415430006833
0	26833	4.76184616409	0.408806006833
0	26869	4.76515816409	0.405494006833
0	26928	4.76847016409	0.390614006833
0	26968	4.77703016409	0.383990006833
0	27022	4.78034216409	0.380678006833
0	28389	4.92555816409	0.507702006833
0	28456	4.93411816409	0.501078006833
0	28474	4.93743016409	0.497766006833
0	28541	4.94074216409	0.482886006833
0	28599	4.94930216409	0.476262006833
0	28631	4.95261416409	0.472950006833
0	28677	4.95592616409	0.458070006833
0	30085	5.12213416409	0.584278006833
0	30172	5.13069416409	0.552838006833
0	30250	5.13925416409	0.521398006833
0	30297	5.14781416409	0.489958006833
0	30352	5.15637416409	0.458518006833
0	30403	5.16493416409	0.427078006833
0	30470	5.17349416409	0.395638006833
0	31914	5.35019816409	0.532342006833
0	32003	5.35875816409	0.500902006833
0	32079	5.36731816409	0.469462006833
0	32111	5.37587816409	0.438022006833
0	32178	5.38443816409	0.406582006833
0	32237	5.39299816409	0.375142006833
0	32284	5.40155816409	0.343702006833
0	33958	5.59925416409	0.501398006833
0	34054	5.60781416409	0.469958006833
0	34089	5.61637416409	0.438518006833
0	34190	5.62493416409	0.407078006833
0	34245	5.63349416409	0.375638006833
0	34309	5.64205416409	0.344198006833
0	34392	5.65061416409	0.338752124241
0	35675	5.82207016409	0.498136966458
0	35687	5.82538216409	0.487526006833
0	35738	5.83394216409	0.482080124241
0	35764	5.83725416409	0.473320966458
0	35786	5.84056616409	0.462710006833
0	35861	5.84912616409	0.457264124241
0	35887	5.85243816409	0.448504966458
0	37234	6.03963816409	0.621782006833
0	37305	6.04819816409	0.616336124241
0	37317	6.05151016409	0.607576966458
0	37357	6.05482216409	0.596966006833
0	37445	6.06338216409	0.591520124241
0	37475	6.06669416409	0.582760966458
0	37502	6.07000616409	0.572150006833
0	39068	6.27295016409	0.761088124241
0	39100	6.27626216409	0.738406006833
0	39156	6.28482216409	0.706966006833
0	39217	6.29338216409	0.675526006833
0	39297	6.30194216409	0.644086006833
0	39328	6.31050216409	0.612646006833
0	39395	6.31906216409	0.581206006833
0	40856	6.52725416409	0.749398006833
0	40903	6.53581416409	0.717958006833
0	40991	6.54437416409	0.686518006833
0	41055	6.55293416409	0.655078006833
0	41102	6.56149416409	0.623638006833
0	41202	6.57005416409	0.628886006833
0	41215	6.57336616409	0.613905103072
0	42928	6.78211816409	0.804262006833
0	43035	6.79923816409	0.818070006833
0	43068	6.80255016409	0.803089103072
0	43195	6.81442216409	0.796566006833
0	43301	6.82298216409	0.801814006833
0	43314	6.82629416409	0.786833103072
0	43420	6.83816616409	0.780310006833
0	45281	7.00437416409	0.943206006833
0	45318	7.00768616409	0.928225103072
0	45369	7.01099816409	0.913142006833
0	45475	7.01955816409	0.918390006833
0	45510	7.02287016409	0.903409103072
0	45566	7.02618216409	0.888326006833
0	45675	7.03474216409	0.893574006833
0	47469	7.17471016409	1.015249103072
0	47512	7.17802216409	1.000166006833
0	47601	7.18658216409	1.005414006833
0	47635	7.18989416409	0.990433103072
0	47719	7.19320616409	0.975350006833
0	47758	7.20176616409	0.980598006833
0	47846	7.20507816409	0.965617103072
0	49583	7.34504616409	1.087190006833
0	49677	7.35360616409	1.092438006833
0	49693	7.35691816409	1.077457103072
0	49715	7.36023016409	1.062374006833
0	49861	7.36879016409	1.067622006833
0	49899	7.37210216409	1.052641103072
0	49921	7.37541416409	1.037558006833
0	51399	7.52587816409	1.184710006833
0	51449	7.52919016409	1.169729103072
0	51475	7.53250216409	1.154646006833
0	51561	7.54106216409	1.123206006833
0	51646	7.54962216409	1.091766006833
0	51702	7.55818216409	1.060326006833
0	51774	7.56674216409	1.038480367284
0	53197	7.71195816409	1.174102006833
0	53260	7.72051816409	1.168656124241
0	53314	7.72383016409	1.155568367284
0	53362	7.72714216409	1.149286006833
0	53441	7.73570216409	1.143840124241
0	53497	7.73901416409	1.130752367284
0	53519	7.74232616409	1.124470006833
0	55111	7.93477416409	1.302912124241
0	55152	7.93808616409	1.289824367284
0	55174	7.94139816409	1.283542006833
0	55230	7.94995816409	1.278096124241
0	55280	7.95327016409	1.265008367284
0	55302	7.95658216409	1.258726006833
0	55377	7.96514216409	1.253280124241
0	56824	8.14184616409	1.413584367284
0	56836	8.14515816409	1.407302006833
0	56912	8.15371816409	1.401856124241
0	56938	8.15703016409	1.388768367284
0	56960	8.16034216409	1.382486006833
0	57052	8.16890216409	1.377040124241
0	57078	8.17221416409	1.363952367284
0	58583	8.35416616409	1.536310006833
0	58610	8.36272616409	1.530864124241
0	58646	8.36603816409	1.517776367284
0	58705	8.36935016409	1.511494006833
0	58749	8.37791016409	1.506048124241
0	58799	8.38122216409	1.492960367284
0	58821	8.38453416409	1.484400367284
0	60089	8.54080616409	1.625488367284
0	60101	8.54411816409	1.615856367284
0	60144	8.54743016409	1.607296367284
0	60268	8.56455016409	1.609232367284
0	60317	8.56786216409	1.599600367284
0	60339	8.57117416409	1.591040367284
0	60407	8.57973416409	1.584416367284
0	61665	8.70839016409	1.700128367284
0	61732	8.72026216409	1.700128367284
0	61842	8.72882216409	1.693504367284
0	61854	8.73213416409	1.683872367284
0	61877	8.73544616409	1.675312367284
0	61956	8.74400616409	1.668688367284
0	61984	8.74731816409	1.659056367284
0	63170	8.88978216409	1.789648367284
0	63226	8.89834216409	1.783024367284
0	63238	8.90165416409	1.773392367284
0	63260	8.90496616409	1.764832367284
0	63356	8.92208616409	1.766768367284
0	63392	8.92539816409	1.757136367284
0	63434	8.92871016409	1.748576367284
0	64657	9.09741416409	1.902096367284
0	64713	9.10072616409	1.892464367284
0	64736	9.10403816409	1.883904367284
0	64852	9.12115816409	1.885840367284
0	64889	9.12447016409	1.876208367284
0	64939	9.12778216409	1.867648367284
0	64975	9.13634216409	1.861024367284
0	66218	9.32410216409	2.035840367284
0	66270	9.32741416409	2.027280367284
0	66302	9.33597416409	2.020656367284
0	66352	9.33928616409	2.011024367284
0	66374	9.34259816409	2.002464367284
0	66469	9.35971816409	2.004400367284
0	66502	9.36303016409	1.994768367284
0	67543	9.48643816409	2.106304367284
0	67594	9.49499816409	2.099680367284
0	67631	9.49831016409	2.090048367284
0	67653	9.50162216409	2.081488367284
0	67748	9.51874216409	2.086736367284
0	67761	9.52205416409	2.073792367284
0	67807	9.52536616409	2.067510006833
0	68773	9.66451816409	2.192656124241
0	68786	9.66783016409	2.179568367284
0	68862	9.67970216409	2.181846006833
0	68947	9.68826216409	2.176400124241
0	68959	9.69157416409	2.163312367284
0	68986	9.69488616409	2.157030006833
0	69041	9.70344616409	2.151584124241
0	70080	9.86690216409	2.298640367284
0	70142	9.87877416409	2.300918006833
0	70227	9.88733416409	2.295472124241
0	70239	9.89064616409	2.282384367284
0	70262	9.89395816409	2.276102006833
0	70321	9.90251816409	2.270656124241
0	70347	9.90583016409	2.257568367284
0	71813	10.12783016409	2.469974006833
0	71853	10.13639016409	2.464528124241
0	71903	10.13970216409	2.451440367284
0	71942	10.14301416409	2.445158006833
0	71981	10.15157416409	2.439712124241
0	72031	10.15488616409	2.426624367284
0	72053	10.15819816409	2.420342006833
0	73705	10.37163816409	2.619776124241
0	73749	10.37495016409	2.606688367284
0	73782	10.37826216409	2.600406006833
0	73855	10.38682216409	2.594960124241
0	73889	10.39013416409	2.581872367284
0	73956	10.39344616409	2.575590006833
0	73992	10.40200616409	2.570144124241
0	75355	10.57595816409	2.727696367284
0	75391	10.57927016409	2.721414006833
0	75453	10.58783016409	2.715968124241
0	75483	10.59114216409	2.702880367284
0	75515	10.59445416409	2.696598006833
0	75566	10.60301416409	2.691152124241
0	75672	10.61488616409	2.686624367284
0	76914	10.75791016409	2.820054006833
0	77084	10.77503016409	2.823168124241
0	77117	10.77834216409	2.810080367284
0	77146	10.78165416409	2.803798006833
0	77248	10.79021416409	2.798352124241
0	77284	10.79352616409	2.775670006833
0	77301	10.80208616409	2.744230006833
0	78578	10.95891816409	2.861062006833
0	78734	10.97603816409	2.838182006833
0	78806	10.98459816409	2.806742006833
0	78865	10.99315816409	2.786903118882
0	78894	10.99647016409	2.778614006833
0	79039	11.01359016409	2.781728124241
0	79056	11.01690216409	2.770647118882
0	80040	11.13893416409	2.881078006833
0	80067	11.14749416409	2.849638006833
0	80117	11.15605416409	2.778198006833
0	80215	11.17317416409	2.755318006833
0	80270	11.18173416409	2.723878006833
0	80301	11.19029416409	2.692438006833
0	80347	11.19885416409	2.660998006833
0	81154	11.32475816409	2.746902006833
0	81324	11.35043816409	2.732582006833
0	81370	11.35899816409	2.701142006833
0	81523	11.38467816409	2.686822006833
0	81574	11.39323816409	2.655382006833
0	81601	11.40179816409	2.623942006833
0	81727	11.41891816409	2.601062006833
0	82282	11.51251816409	2.654662006833
0	82343	11.52107816409	2.623222006833
0	82496	11.54675816409	2.608902006833
0	82546	11.55531816409	2.577462006833
0	82643	11.57243816409	2.554582006833
0	82730	11.58955816409	2.531702006833
0	82776	11.59811816409	2.500262006833
0	83330	11.68315816409	2.545302006833
0	83472	11.70883816409	2.530982006833
0	83518	11.71739816409	2.499542006833
0	83616	11.73451816409	2.476662006833
0	83702	11.75163816409	2.453782006833
0	83748	11.76019816409	2.422342006833
0	83901	11.78587816409	2.408022006833
0	84481	11.86898216409	2.451126006833
0	84542	11.87754216409	2.419686006833
0	84639	11.89466216409	2.396806006833
0	84725	11.91178216409	2.373926006833
0	84771	11.92034216409	2.342486006833
0	84924	11.94602216409	2.328166006833
0	84975	11.95458216409	2.296726006833
0	86078	12.10091816409	2.403062006833
0	86114	12.10947816409	2.371622006833
0	86174	12.11803816409	2.340182006833
0	86297	12.13515816409	2.317302006833
0	86377	12.14371816409	2.285862006833
0	86408	12.15227816409	2.254422006833
0	86471	12.16083816409	2.222982006833
0	87626	12.31767016409	2.339814006833
0	87749	12.33479016409	2.316934006833
0	87804	12.34335016409	2.285494006833
0	87835	12.35191016409	2.254054006833
0	87881	12.36047016409	2.222614006833
0	87984	12.37759016409	2.199734006833
0	88034	12.38615016409	2.168294006833
0	89031	12.54298216409	2.285126006833
0	89083	12.55154216409	2.253686006833
0	89133	12.56010216409	2.258934006833
0	89146	12.56341416409	2.244847720764
0	89264	12.57528616409	2.237430006833
0	89337	12.58384616409	2.242678006833
0	89349	12.58715816409	2.228591720764
0	90678	12.77879016409	2.400934006833
0	90712	12.78735016409	2.406182006833
0	90749	12.79066216409	2.392095720764
0	90796	12.79397416409	2.376118006833
0	90827	12.80253416409	2.381366006833
0	90941	12.81440616409	2.375839720764
0	90975	12.81771816409	2.359862006833
0	92777	13.01210216409	2.514246006833
0	92948	13.02922216409	2.491366006833
0	93019	13.03778216409	2.459926006833
0	93091	13.04634216409	2.428486006833
0	93179	13.05490216409	2.419728124241
0	93221	13.05821416409	2.410542213493
0	93251	13.06152616409	2.401982213493
0	94600	13.20067816409	2.525504124241
0	94613	13.20399016409	2.516318213493
0	94661	13.20730216409	2.507758213493
0	94821	13.22442216409	2.509248124241
0	94837	13.22773416409	2.500062213493
0	94904	13.23104616409	2.491502213493
0	94993	13.23960616409	2.484432124241
0	96011	13.35363816409	2.585966213493
0	96031	13.35695016409	2.577406213493
0	96182	13.37407016409	2.578896124241
0	96272	13.38594216409	2.568086006833
0	96371	13.39450216409	2.536646006833
0	96407	13.40306216409	2.505206006833
0	96639	13.42874216409	2.490886006833
0	97945	13.55077416409	2.572918006833
0	98044	13.56264616409	2.544790006833
0	98281	13.58832616409	2.530470006833
0	98406	13.59688616409	2.499030006833
0	98462	13.60544616409	2.467590006833
0	98563	13.61400616409	2.436150006833
0	98723	13.63112616409	2.413270006833
0	99977	13.75453416409	2.496678006833
0	100075	13.76309416409	2.465238006833
0	100185	13.77496616409	2.437110006833
0	100405	13.79539816409	2.417542006833
0	100456	13.80395816409	2.386102006833
0	100695	13.82439016409	2.366534006833
0	100791	13.83295016409	2.335094006833
0	102262	13.97485416409	2.436998006833
0	102449	13.99197416409	2.414118006833
0	102504	14.00053416409	2.382678006833
0	102596	14.00909416409	2.351238006833
0	102648	14.01765416409	2.319798006833
0	102727	14.02621416409	2.288358006833
0	102808	14.03477416409	2.256918006833
0	104409	14.18523816409	2.367382006833
0	104528	14.19379816409	2.335942006833
0	104585	14.20235816409	2.304502006833
0	104718	14.21091816409	2.273062006833
0	104799	14.21947816409	2.241622006833
0	104858	14.22803816409	2.210182006833
0	104967	14.23659816409	2.178742006833
0	106714	14.37656616409	2.278710006833
0	106819	14.38512616409	2.247270006833
0	106938	14.39368616409	2.215830006833
0	106995	14.40224616409	2.184390006833
0	107128	14.41080616409	2.152950006833
0	107209	14.41936616409	2.121510006833
0	107268	14.42792616409	2.090070006833
0	108960	14.57314216409	2.195286006833
0	109037	14.58170216409	2.163846006833
0	109107	14.59026216409	2.132406006833
0	109177	14.59882216409	2.100966006833
0	109253	14.60738216409	2.069526006833
0	109305	14.61594216409	2.038086006833
0	109385	14.62450216409	2.006646006833
0	110820	14.77496616409	2.117110006833
0	110939	14.78352616409	2.085670006833
0	110970	14.79208616409	2.054230006833
0	111053	14.80064616409	2.022790006833
0	111137	14.80920616409	1.991350006833
0	111209	14.81776616409	1.959910006833
0	111269	14.82632616409	1.928470006833
0	112742	14.96629416409	2.065126006833
0	112778	14.96960616409	2.049942006833
0	112808	14.97291816409	2.035062006833
0	112948	14.98147816409	2.028438006833
0	112983	14.98479016409	2.025126006833
0	113009	14.98810216409	2.010246006833
0	113081	14.99666216409	2.003622006833
0	114517	15.15762216409	2.161270006833
0	114556	15.16093416409	2.143078006833
0	114639	15.16949416409	2.136454006833
0	114665	15.17280616409	2.133142006833
0	114693	15.17611816409	2.118262006833
0	114768	15.18467816409	2.111638006833
0	114799	15.18799016409	2.108326006833
0	116121	15.34370216409	2.245846006833
0	116171	15.35226216409	2.239222006833
0	116203	15.35557416409	2.235910006833
0	116225	15.35888616409	2.221030006833
0	116300	15.36744616409	2.214406006833
0	116343	15.37075816409	2.211094006833
0	116369	15.37407016409	2.196214006833
0	117598	15.51403816409	2.320998006833
0	117610	15.51735016409	2.317686006833
0	117640	15.52066216409	2.302806006833
0	117733	15.52922216409	2.296182006833
0	117776	15.53253416409	2.292870006833
0	117806	15.53584616409	2.277990006833
0	117866	15.54440616409	2.271366006833
0	119317	15.69487016409	2.415206006833
0	119359	15.69818216409	2.400326006833
0	119413	15.70674216409	2.393702006833
0	119464	15.71005416409	2.390390006833
0	119531	15.71336616409	2.375510006833
0	119594	15.72192616409	2.368886006833
0	119646	15.72523816409	2.365574006833
0	121553	15.90719016409	2.529334006833
0	121664	15.91575016409	2.522710006833
0	121680	15.91906216409	2.519398006833
0	121702	15.92237416409	2.504518006833
0	121794	15.93093416409	2.497894006833
0	121841	15.93424616409	2.494582006833
0	121872	15.93755816409	2.479702006833
0	123425	16.09851816409	2.625478006833
0	123441	16.10183016409	2.622166006833
0	123467	16.10514216409	2.607286006833
0	123578	16.11370216409	2.600662006833
0	123612	16.11701416409	2.597350006833
0	123638	16.12032616409	2.582470006833
0	123713	16.12888616409	2.575846006833
0	125238	16.27935016409	2.719686006833
0	125264	16.28266216409	2.704806006833
0	125398	16.29122216409	2.698182006833
0	125449	16.29453416409	2.694870006833
0	125479	16.29784616409	2.679990006833
0	125560	16.30640616409	2.673366006833
0	125594	16.30971816409	2.670054006833
0	127523	16.49167016409	2.833814006833
0	127611	16.50023016409	2.827190006833
0	127632	16.50354216409	2.725686006833
0	127703	16.51210216409	2.694246006833
0	127790	16.52066216409	2.662806006833
0	127869	16.52922216409	2.631366006833
0	127962	16.53778216409	2.599926006833
0	129554	16.70923816409	2.731382006833
0	129654	16.71779816409	2.699942006833
0	129705	16.72635816409	2.668502006833
0	129793	16.73491816409	2.637062006833
0	129857	16.74347816409	2.605622006833
0	129908	16.75203816409	2.598998006833
0	129962	16.75535016409	2.592608843442
0	131412	16.92680616409	2.748950006833
0	131500	16.93536616409	2.742326006833
0	131538	16.93867816409	2.735936843442
0	131572	16.94199016409	2.724134006833
0	131627	16.95055016409	2.717510006833
0	131691	16.95386216409	2.711120843442
0	131717	16.95717416409	2.699318006833
0	133207	17.15487016409	2.881830006833
0	133229	17.15818216409	2.875440843442
0	133238	17.16149416409	2.783638006833
0	133330	17.17005416409	2.777014006833
0	133357	17.17336616409	2.770624843442
0	133384	17.17667816409	2.758822006833
0	133438	17.18523816409	2.752198006833
0	134586	17.33045416409	2.887712843442
0	134626	17.33376616409	2.875910006833
0	134693	17.34232616409	2.764470006833
0	134738	17.35088616409	2.768144843442
0	134790	17.35419816409	2.751456843442
0	134817	17.35751016409	2.739654006833
0	134872	17.36607016409	2.743328843442
0	136289	17.54277416409	2.900032843442
0	136301	17.54608616409	2.888230006833
0	136373	17.55464616409	2.776790006833
0	136418	17.56320616409	2.760464843442
0	136454	17.56651816409	2.748662006833
0	136505	17.57507816409	2.752336843442
0	136556	17.57839016409	2.735648843442
0	137915	17.75565416409	2.897798006833
0	138059	17.77277416409	2.910032843442
0	138076	17.77608616409	2.798230006833
0	138170	17.78464616409	2.801904843442
0	138197	17.78795816409	2.785216843442
0	138213	17.79127016409	2.773414006833
0	138288	17.79983016409	2.741974006833
0	139595	17.94091816409	2.843062006833
0	139651	17.94947816409	2.811622006833
0	139726	17.95803816409	2.780182006833
0	139865	17.97515816409	2.757302006833
0	139949	17.98371816409	2.725862006833
0	140006	17.99227816409	2.694422006833
0	140081	18.00083816409	2.662982006833
0	141203	18.15767016409	2.779814006833
0	141301	18.17479016409	2.756934006833
0	141356	18.18335016409	2.725494006833
0	141387	18.19191016409	2.694054006833
0	141433	18.20047016409	2.662614006833
0	141557	18.21759016409	2.639734006833
0	141611	18.22615016409	2.608294006833
0	142659	18.38823016409	2.730374006833
0	142709	18.39679016409	2.698934006833
0	142807	18.41391016409	2.712742006833
0	142844	18.41722216409	2.700870006833
0	142894	18.42053416409	2.682678006833
0	142955	18.42909416409	2.687926006833
0	142970	18.43240616409	2.676054006833
0	144188	18.62403816409	2.846182006833
0	144244	18.63259816409	2.851430006833
0	144276	18.63591016409	2.839558006833
0	144298	18.63922216409	2.821366006833
0	144444	18.65634216409	2.835174006833
0	144480	18.65965416409	2.824579974147
0	144505	18.66296616409	2.805110006833
0	145969	18.86647016409	3.005302006833
0	145985	18.86978216409	2.994707974147
0	146039	18.87309416409	2.958019974147
0	146086	18.87640616409	2.938550006833
0	146283	18.89683816409	2.955670006833
0	146330	18.90015016409	2.945075974147
0	146396	18.90677416409	2.928918006833
0	148085	19.05723816409	3.076070006833
0	148139	19.06055016409	3.065475974147
0	148155	19.06386216409	2.962694006833
0	148217	19.06717416409	2.952099974147
0	148248	19.07048616409	2.932630006833
0	148344	19.07904616409	2.937878006833
0	148359	19.08235816409	2.927283974147
0	149802	19.22232616409	3.044470006833
0	149854	19.23088616409	3.049718006833
0	149904	19.23419816409	2.934098719713
0	149951	19.24275816409	2.927474719713
0	150022	19.24607016409	2.927474719713
0	150069	19.24938216409	2.911526006833
0	150129	19.25794216409	2.916774006833
0	151428	19.39791016409	3.042835974147
0	151454	19.40122216409	3.023366006833
0	151533	19.40978216409	2.911926006833
0	151623	19.41834216409	2.917174006833
0	151640	19.42165416409	2.906579974147
0	151662	19.42496616409	2.887110006833
0	151717	19.43352616409	2.892358006833
0	153134	19.61547816409	3.060403974147
0	153191	19.61879016409	3.040934006833
0	153223	19.62735016409	2.912275974147
0	153253	19.63066216409	2.892806006833
0	153316	19.63922216409	2.898054006833
0	153346	19.64253416409	2.887459974147
0	153393	19.64584616409	2.867990006833
0	154804	19.82255016409	3.041382006833
0	154830	19.82586216409	3.030787974147
0	154857	19.82917416409	2.891318006833
0	154924	19.83773416409	2.896566006833
0	154950	19.84104616409	2.885971974147
0	154997	19.84435816409	2.866502006833
0	155055	19.85291816409	2.871750006833
0	156673	20.04536616409	3.050291974147
0	156709	20.04867816409	3.030822006833
0	156761	20.05723816409	2.879382006833
0	156830	20.06579816409	2.847942006833
0	156881	20.07435816409	2.816502006833
0	156928	20.08291816409	2.785062006833
0	157003	20.09147816409	2.790310006833
0	158537	20.26818216409	2.951759191722
0	158553	20.27149416409	2.933638006833
0	158616	20.28005416409	2.938886006833
0	158666	20.28336616409	2.926943191722
0	158714	20.28667816409	2.908822006833
0	158773	20.29523816409	2.914070006833
0	158848	20.29855016409	2.902127191722
0	160270	20.48050216409	3.062646006833
0	160366	20.48906216409	3.067894006833
0	160378	20.49237416409	2.935951191722
0	160405	20.49568616409	2.917830006833
0	160477	20.50424616409	2.886390006833
0	160530	20.51280616409	2.854950006833
0	160576	20.52136616409	2.823510006833
0	161984	20.75055016409	3.012694006833
0	162030	20.75911016409	2.981254006833
0	162101	20.76767016409	2.949814006833
0	162133	20.77623016409	2.918374006833
0	162183	20.78479016409	2.886934006833
0	162234	20.79335016409	2.855494006833
0	162261	20.80191016409	2.824054006833
0	163863	21.03109416409	3.038054006833
0	163896	21.03440616409	3.023550483866
0	163922	21.03771816409	3.018302483866
0	163977	21.04627816409	3.014416124241
0	164023	21.04959016409	2.998734483866
0	164066	21.05290216409	2.993486483866
0	164130	21.06146216409	2.989600124241
0	165433	21.23291816409	3.142062483866
0	165455	21.23623016409	3.136814483866
0	165531	21.24479016409	3.066934006833
0	165596	21.25335016409	3.035494006833
0	165671	21.26191016409	3.004054006833
0	165707	21.27047016409	2.972614006833
0	165770	21.27903016409	2.941174006833
0	166897	21.42949416409	3.051638006833
0	166957	21.43805416409	3.020198006833
0	167008	21.44661416409	2.988758006833
0	167059	21.45517416409	2.957318006833
0	167110	21.46373416409	2.925878006833
0	167141	21.47229416409	2.894438006833
0	167187	21.48085416409	2.888992124241
0	168398	21.64181416409	3.03217913998
0	168430	21.64512616409	3.02693113998
0	168499	21.65368616409	3.021824124241
0	168530	21.65699816409	3.00736313998
0	168576	21.66031016409	3.00211513998
0	168611	21.66887016409	2.997008124241
0	168637	21.67218216409	2.98254713998
0	170055	21.86463016409	3.16643513998
0	170136	21.87319016409	3.161328124241
0	170162	21.87650216409	3.004640124241
0	170184	21.87981416409	2.99017913998
0	170213	21.88312616409	2.98493113998
0	170327	21.89168616409	2.979824124241
0	170357	21.89499816409	2.96536313998
0	172350	22.08219816409	3.14400313998
0	172471	22.09075816409	3.138896124241
0	172483	22.09407016409	3.03587513998
0	172605	22.10263016409	3.030768124241
0	172656	22.10594216409	3.01630713998
0	172683	22.10925416409	3.01105913998
0	172770	22.11781416409	3.005952124241
0	174762	22.28402216409	3.15438713998
0	174837	22.28733416409	3.14913913998
0	174892	22.29589416409	3.064032124241
0	174948	22.29920616409	3.04957113998
0	175015	22.30251816409	3.04432313998
0	175084	22.31107816409	3.039216124241
0	175154	22.31439016409	3.02475513998
0	177001	22.50159016409	3.20339513998
0	177057	22.51015016409	3.172294006833
0	177103	22.51871016409	3.100854006833
0	177183	22.52727016409	3.069414006833
0	177226	22.53583016409	3.037974006833
0	177301	22.54439016409	3.006534006833
0	177357	22.55295016409	2.975094006833
0	178960	22.74539816409	3.127542006833
0	179011	22.75395816409	3.096102006833
0	179059	22.76251816409	3.064662006833
0	179133	22.77107816409	3.033222006833
0	179206	22.77963816409	3.001782006833
0	179240	22.78819816409	2.970342006833
0	179291	22.79675816409	2.938902006833
0	180800	22.96821416409	3.070358006833
0	180867	22.97677416409	3.038918006833
0	180946	22.98533416409	3.007478006833
0	181014	22.99389416409	2.976038006833
0	181069	23.00245416409	2.944598006833
0	181144	23.01101416409	2.913158006833
0	181242	23.01957416409	2.881718006833
0	182530	23.16479016409	3.023622006833
0	182576	23.16810216409	2.990246006833
0	182638	23.17666216409	2.958806006833
0	182743	23.18522216409	2.927366006833
0	182832	23.19378216409	2.895926006833
0	182859	23.20234216409	2.864486006833
0	182996	23.21090216409	2.833046006833
0	184685	23.37186216409	2.954006006833
0	184745	23.38042216409	2.922566006833
0	184855	23.38898216409	2.891126006833
0	184915	23.39754216409	2.859686006833
0	185003	23.40610216409	2.828246006833
0	185079	23.41466216409	2.796806006833
0	185143	23.42322216409	2.765366006833
0	186702	23.57368616409	2.875830006833
0	186772	23.58224616409	2.844390006833
0	186849	23.59080616409	2.812950006833
0	186899	23.59936616409	2.781510006833
0	187012	23.60792616409	2.750070006833
0	187048	23.61648616409	2.718630006833
0	187139	23.62504616409	2.687190006833
0	188582	23.77551016409	2.797654006833
0	188679	23.78407016409	2.766214006833
0	188737	23.79263016409	2.734774006833
0	188783	23.80119016409	2.703334006833
0	188904	23.80975016409	2.671894006833
0	188960	23.81831016409	2.640454006833
0	189027	23.82687016409	2.609014006833
0	190396	23.98258216409	2.724726006833
0	190452	23.99114216409	2.693286006833
0	190516	23.99970216409	2.661846006833
0	190608	24.00826216409	2.630406006833
0	190644	24.01682216409	2.598966006833
0	190711	24.02538216409	2.567526006833
0	190770	24.03394216409	2.536086006833
0	192051	24.18440616409	2.646550006833
0	192110	24.19296616409	2.615110006833
0	192151	24.20152616409	2.583670006833
0	192246	24.21008616409	2.552230006833
0	192302	24.21864616409	2.520790006833
0	192349	24.22720616409	2.489350006833
0	192404	24.23576616409	2.457910006833
0	193938	24.44920616409	2.631350006833
0	193984	24.45776616409	2.599910006833
0	194051	24.46632616409	2.568470006833
0	194110	24.47488616409	2.537030006833
0	194137	24.48344616409	2.516796357214
0	194193	24.48675816409	2.508902006833
0	194249	24.49531816409	2.5004052629
0	195790	24.69826216409	2.691612357214
0	195806	24.70157416409	2.683718006833
0	195879	24.71013416409	2.6752212629
0	195926	24.71344616409	2.666796357214
0	195952	24.71675816409	2.658902006833
0	196007	24.72531816409	2.6504052629
0	196070	24.72863016409	2.641980357214
0	197436	24.90533416409	2.807478006833
0	197487	24.91389416409	2.7989812629
0	197513	24.91720616409	2.790556357214
0	197535	24.92051816409	2.782662006833
0	197610	24.92907816409	2.7741652629
0	197636	24.93239016409	2.765740357214
0	197663	24.93570216409	2.757846006833
0	199366	25.10191016409	2.9069972629
0	199396	25.10522216409	2.898572357214
0	199419	25.10853416409	2.890678006833
0	199519	25.11709416409	2.8821812629
0	199566	25.12040616409	2.873756357214
0	199592	25.12371816409	2.865862006833
0	199688	25.13227816409	2.859238006833
0	201230	25.27224616409	2.985596357214
0	201278	25.27555816409	2.977702006833
0	201356	25.28411816409	2.971078006833
0	201427	25.28743016409	2.960780357214
0	201449	25.29074216409	2.952886006833
0	201550	25.29930216409	2.946262006833
0	201581	25.30261416409	2.935964357214
0	202984	25.44258216409	3.064726006833
0	203059	25.45114216409	3.058102006833
0	203103	25.45445416409	2.916598006833
0	203191	25.46301416409	2.885158006833
0	203236	25.47157416409	2.853718006833
0	203324	25.48013416409	2.822278006833
0	203403	25.48869416409	2.790838006833
0	204472	25.63391016409	2.896054006833
0	204513	25.64247016409	2.864614006833
0	204583	25.65103016409	2.833174006833
0	204639	25.65959016409	2.801734006833
0	204666	25.66815016409	2.770294006833
0	204716	25.67671016409	2.738854006833
0	204767	25.68527016409	2.707414006833
0	206027	25.84098216409	2.823126006833
0	206119	25.84954216409	2.791686006833
0	206210	25.85810216409	2.760246006833
0	206248	25.86666216409	2.728806006833
0	206344	25.87522216409	2.697366006833
0	206380	25.88378216409	2.665926006833
0	206463	25.89234216409	2.634486006833
0	208107	26.09528616409	2.797430006833
0	208166	26.10384616409	2.765990006833
0	208211	26.11240616409	2.734550006833
0	208282	26.12096616409	2.703110006833
0	208353	26.12952616409	2.671670006833
0	208426	26.13808616409	2.640230006833
0	208460	26.14664616409	2.608790006833
0	209869	26.32859816409	2.750742006833
0	209935	26.33715816409	2.719302006833
0	209990	26.34571816409	2.687862006833
0	210078	26.35427816409	2.656422006833
0	210118	26.36283816409	2.624982006833
0	210188	26.37139816409	2.593542006833
0	210282	26.37995816409	2.562102006833
0	212000	26.58290216409	2.725046006833
0	212049	26.59146216409	2.693606006833
0	212145	26.60002216409	2.662166006833
0	212220	26.60858216409	2.630726006833
0	212272	26.61714216409	2.599286006833
0	212327	26.62570216409	2.567846006833
0	212398	26.63426216409	2.536406006833
0	213831	26.82146216409	2.683606006833
0	213862	26.83002216409	2.652166006833
0	213933	26.83858216409	2.620726006833
0	213984	26.84714216409	2.589286006833
0	214052	26.85570216409	2.557846006833
0	214111	26.86426216409	2.526406006833
0	214142	26.87282216409	2.494966006833
0	215237	26.99816616409	2.580310006833
0	215378	27.01528616409	2.557430006833
0	215437	27.02384616409	2.525990006833
0	215468	27.03240616409	2.494550006833
0	215539	27.04096616409	2.463110006833
0	215683	27.05808616409	2.440230006833
0	215717	27.06664616409	2.445478006833
0	216764	27.23922216409	2.602870006833
0	216777	27.24253416409	2.584678006833
0	216917	27.25965416409	2.598486006833
0	216929	27.26296616409	2.58907663926
0	216954	27.26627816409	2.568422006833
0	217035	27.27483816409	2.573670006833
0	217046	27.27815016409	2.56426063926
0	218265	27.45403816409	2.716182006833
0	218337	27.46259816409	2.721430006833
0	218349	27.46591016409	2.71202063926
0	218396	27.46922216409	2.691366006833
0	218530	27.48109416409	2.699926006833
0	218685	27.49296616409	2.69907663926
0	218719	27.49627816409	2.678422006833
0	220506	27.70253416409	2.881366006833
0	220518	27.70584616409	2.87195663926
0	220545	27.70915816409	2.851302006833
0	220620	27.71771816409	2.856550006833
0	220646	27.72103016409	2.84714063926
0	220689	27.72434216409	2.826486006833
0	220764	27.73290216409	2.831734006833
0	222460	27.93584616409	2.997990006833
0	222533	27.94440616409	2.986666383496
0	222549	27.94771816409	2.969862006833
0	222629	27.95627816409	2.975110006833
0	222655	27.95959016409	2.961850383496
0	222698	27.96290216409	2.945046006833
0	222794	27.97146216409	2.950294006833
0	224457	28.13767016409	3.099930383496
0	224528	28.14098216409	3.083126006833
0	224579	28.14954216409	3.031802383496
0	224641	28.15285416409	3.014998006833
0	224709	28.16141416409	3.020246006833
0	224785	28.16472616409	3.006986383496
0	224828	28.16803816409	2.990182006833
0	226406	28.33424616409	3.153078006833
0	226420	28.33755816409	3.139818383496
0	226491	28.34087016409	3.063130383496
0	226517	28.34418216409	3.046326006833
0	226598	28.35274216409	3.051574006833
0	226649	28.35605416409	3.038314383496
0	226691	28.35936616409	3.021510006833
0	228545	28.54131816409	3.200150006833
0	228567	28.54463016409	3.186890383496
0	228579	28.54794216409	3.090086006833
0	228706	28.55650216409	3.095334006833
0	228752	28.55981416409	3.082074383496
0	228776	28.56312616409	3.065270006833
0	228888	28.57168616409	3.033830006833
0	230479	28.74314216409	3.165286006833
0	230548	28.75170216409	3.133846006833
0	230623	28.76026216409	3.102406006833
0	230716	28.76882216409	3.070966006833
0	230751	28.77738216409	3.039526006833
0	230823	28.78594216409	3.008086006833
0	230903	28.79450216409	2.976646006833
0	232262	28.96071016409	3.102854006833
0	232342	28.96927016409	3.071414006833
0	232408	28.97783016409	3.039974006833
0	232480	28.98639016409	3.008534006833
0	232539	28.99495016409	2.977094006833
0	232591	29.00351016409	2.945654006833
0	232661	29.01207016409	2.914214006833
0	234051	29.19402216409	3.056166006833
0	234082	29.20258216409	3.024726006833
0	234166	29.21114216409	2.993286006833
0	234222	29.21970216409	2.961846006833
0	234249	29.22826216409	2.930406006833
0	234316	29.23682216409	2.898966006833
0	234391	29.24538216409	2.887095129513
0	236080	29.44832616409	3.070470006833
0	236136	29.45688616409	3.063846006833
0	236191	29.46019816409	3.061911129513
0	236213	29.46351016409	3.045654006833
0	236248	29.47207016409	3.039030006833
0	236311	29.47538216409	3.037095129513
0	236333	29.47869416409	3.020838006833
0	237873	29.68688616409	3.213846006833
0	237915	29.69019816409	3.211911129513
0	237924	29.69351016409	3.100470006833
0	237975	29.69682216409	3.098535129513
0	238030	29.70013416409	3.082278006833
0	238083	29.70869416409	3.050838006833
0	238160	29.71725416409	3.019398006833
0	239601	29.90970216409	3.171846006833
0	239664	29.91826216409	3.140406006833
0	239723	29.92682216409	3.068966006833
0	239794	29.93538216409	3.037526006833
0	239850	29.94394216409	3.006086006833
0	239881	29.95250216409	2.974646006833
0	239944	29.96106216409	2.943206006833
0	241442	30.14826216409	3.090406006833
0	241526	30.15682216409	3.058966006833
0	241595	30.16538216409	3.027526006833
0	241670	30.17394216409	2.996086006833
0	241754	30.18250216409	2.964646006833
0	241790	30.19106216409	2.933206006833
0	241870	30.19962216409	2.901766006833
0	243498	30.36058216409	3.036351644966
0	243518	30.36389416409	3.026038006833
0	243622	30.37245416409	3.020592124241
0	243682	30.37576616409	3.011535644966
0	243733	30.37907816409	3.001222006833
0	243801	30.38763816409	2.995776124241
0	243832	30.39095016409	2.986719644966
0	245304	30.53091816409	3.113062006833
0	245397	30.53947816409	3.107616124241
0	245431	30.54279016409	3.084934006833
0	245467	30.55135016409	3.079488124241
0	245547	30.55466216409	3.070431644966
0	245569	30.55797416409	3.060118006833
0	245628	30.56653416409	3.053494006833
0	246818	30.70650216409	3.182271644966
0	246849	30.70981416409	3.171958006833
0	246895	30.71837416409	2.980518006833
0	246960	30.72693416409	2.949078006833
0	247011	30.73549416409	2.917638006833
0	247062	30.74405416409	2.886198006833
0	247093	30.75261416409	2.854758006833
0	248253	30.90832616409	2.970470006833
0	248303	30.91688616409	2.939030006833
0	248368	30.92544616409	2.907590006833
0	248415	30.93400616409	2.889447069677
0	248432	30.93731816409	2.879462006833
0	248482	30.94587816409	2.870704124241
0	248513	30.94919016409	2.864631069677
0	249657	31.11539816409	3.017542006833
0	249692	31.12395816409	3.008784124241
0	249746	31.12727016409	2.989414006833
0	249789	31.13583016409	2.980656124241
0	249840	31.13914216409	2.974583069677
0	249862	31.14245416409	2.964598006833
0	249897	31.15101416409	2.955840124241
0	250941	31.30203816409	3.097479069677
0	250953	31.30535016409	3.087494006833
0	251048	31.31391016409	2.976054006833
0	251060	31.32247016409	2.970608124241
0	251143	31.33434216409	2.969783069677
0	251174	31.33765416409	2.959798006833
0	251239	31.34621416409	2.954352124241
0	252280	31.47349416409	3.068935069677
0	252318	31.48011816409	3.062262006833
0	252484	31.49723816409	2.944198006833
0	252550	31.50386216409	2.939303069677
0	252559	31.50717416409	2.929318006833
0	252693	31.51904616409	2.926006006833
0	252705	31.52235816409	2.917799069677
0	254084	31.68663016409	3.068774006833
0	254155	31.69519016409	3.062150006833
0	254211	31.69850216409	2.945462006833
0	254233	31.70181416409	2.937255069677
0	254241	31.70512616409	2.927270006833
0	254339	31.71368616409	2.920646006833
0	254365	31.71699816409	2.912439069677
0	255902	31.86746216409	3.049606006833
0	255979	31.87602216409	3.042982006833
0	255995	31.87933416409	2.914775069677
0	256018	31.88264616409	2.904790006833
0	256109	31.89120616409	2.896829502014
0	256156	31.89451816409	2.889959069677
0	256187	31.89783016409	2.879974006833
0	258261	32.11651816409	3.084656124241
0	258278	32.11983016409	3.075271069677
0	258301	32.12314216409	2.905286006833
0	258409	32.13170216409	2.873846006833
0	258508	32.14026216409	2.842406006833
0	258579	32.14882216409	2.810966006833
0	258667	32.15738216409	2.779526006833
0	260022	32.36282216409	2.970960124241
0	260105	32.37469416409	2.969106076647
0	260160	32.37800616409	2.920150006833
0	260202	32.38656616409	2.888710006833
0	260251	32.39512616409	2.857270006833
0	260373	32.41224616409	2.834390006833
0	260450	32.42080616409	2.802950006833
0	261666	32.59338216409	2.935526006833
0	261698	32.60194216409	2.904086006833
0	261850	32.61906216409	2.881206006833
0	261881	32.62762216409	2.849766006833
0	261948	32.63618216409	2.818326006833
0	262053	32.65330216409	2.795446006833
0	262134	32.66186216409	2.764006006833
0	263862	32.82282216409	2.884966006833
0	263913	32.83138216409	2.853526006833
0	264006	32.83994216409	2.822086006833
0	264085	32.84850216409	2.790646006833
0	264157	32.85706216409	2.759206006833
0	264217	32.86562216409	2.727766006833
0	264288	32.87418216409	2.696326006833
0	265945	33.06331816409	2.845462006833
0	265976	33.07187816409	2.814022006833
0	266047	33.08043816409	2.781014723929
0	266170	33.09755816409	2.758134723929
0	266225	33.10611816409	2.726694723929
0	266296	33.11467816409	2.695254723929
0	266328	33.12323816409	2.665382006833
0	267494	33.27482216409	2.776966006833
0	267526	33.28338216409	2.745526006833
0	267673	33.30050216409	2.722646006833
0	267704	33.30906216409	2.691206006833
0	267779	33.31762216409	2.659766006833
0	267894	33.33474216409	2.636886006833
0	267957	33.34330216409	2.605446006833
0	269096	33.49488616409	2.717030006833
0	269155	33.50344616409	2.685590006833
0	269186	33.51200616409	2.653039013971
0	269257	33.52056616409	2.622710006833
0	269380	33.53768616409	2.599830006833
0	269435	33.54624616409	2.568390006833
0	269506	33.55480616409	2.536950006833
0	270445	33.69589416409	2.638038006833
0	270510	33.70445416409	2.606598006833
0	270560	33.71301416409	2.575158006833
0	270587	33.72157416409	2.543718006833
0	270713	33.73869416409	2.520838006833
0	270740	33.74725416409	2.489398006833
0	270790	33.75581416409	2.457958006833
0	271742	33.91264616409	2.574790006833
0	271788	33.92120616409	2.540580070991
0	271915	33.93832616409	2.517700070991
0	271942	33.94688616409	2.486260070991
0	271992	33.95544616409	2.454820070991
0	272089	33.97256616409	2.434710006833
0	272145	33.98112616409	2.403270006833
0	273016	34.11365416409	2.495798006833
0	273029	34.12221416409	2.464358006833
0	273169	34.13933416409	2.441478006833
0	273196	34.14789416409	2.410038006833
0	273246	34.15645416409	2.378598006833
0	273344	34.17357416409	2.392406006833
0	273361	34.17688616409	2.379329719032
0	274216	34.29367016409	2.475814006833
0	274271	34.30223016409	2.481062006833
0	274283	34.30554216409	2.467985719032
0	274310	34.30885416409	2.450998006833
0	274360	34.31741416409	2.456246006833
0	274386	34.32072616409	2.443169719032
0	274483	34.33259816409	2.434742006833
0	275473	34.46512616409	2.563958006833
0	275486	34.46843816409	2.550881719032
0	275532	34.47175016409	2.533894006833
0	275587	34.48031016409	2.539142006833
0	275614	34.48362216409	2.526065719032
0	275735	34.49549416409	2.517638006833
0	275805	34.50405416409	2.511014006833
0	277039	34.65563816409	2.655974006833
0	277081	34.65895016409	2.641094006833
0	277130	34.66751016409	2.634470006833
0	277160	34.67082216409	2.631158006833
0	277205	34.67413416409	2.616278006833
0	277268	34.68269416409	2.609654006833
0	277386	34.69456616409	2.614902006833
0	278591	34.82709416409	2.729238006833
0	278683	34.83565416409	2.722614006833
0	278714	34.83896616409	2.719302006833
0	278740	34.84227816409	2.704422006833
0	278931	34.85939816409	2.706358006833
0	278947	34.86271016409	2.703046006833
0	278972	34.86602216409	2.688166006833
0	280361	35.02810216409	2.846934006833
0	280410	35.03141416409	2.833857719032
0	280439	35.03472616409	2.816870006833
0	280474	35.04328616409	2.822118006833
0	280595	35.05515816409	2.817601719032
0	280651	35.05847016409	2.800614006833
0	280693	35.06703016409	2.805862006833
0	281799	35.21861416409	2.920758006833
0	281861	35.22717416409	2.889318006833
0	281915	35.23573416409	2.857878006833
0	282037	35.25285416409	2.834998006833
0	282110	35.26141416409	2.803558006833
0	282145	35.26997416409	2.772118006833
0	282195	35.27853416409	2.740678006833
0	283548	35.44061416409	2.862758006833
0	283695	35.45773416409	2.839878006833
0	283783	35.46629416409	2.808438006833
0	283846	35.47485416409	2.776998006833
0	283914	35.48341416409	2.745558006833
0	284066	35.50053416409	2.722678006833
0	284125	35.50909416409	2.691238006833
0	285276	35.63112616409	2.773270006833
0	285329	35.63968616409	2.741830006833
0	285495	35.65680616409	2.718950006833
0	285571	35.66536616409	2.687510006833
0	285626	35.67392616409	2.656070006833
0	285715	35.68248616409	2.624630006833
0	285932	35.70291816409	2.605062006833
0	287236	35.84288616409	2.705030006833
0	287426	35.86000616409	2.682150006833
0	287462	35.86856616409	2.650710006833
0	287533	35.87712616409	2.619270006833
0	287609	35.88568616409	2.587830006833
0	287677	35.89424616409	2.556390006833
0	287740	35.90280616409	2.524950006833
0	288966	36.06763816409	2.649782006833
0	289037	36.07619816409	2.618342006833
0	289157	36.09331816409	2.595462006833
0	289220	36.10187816409	2.564022006833
0	289251	36.11043816409	2.532582006833
0	289322	36.11899816409	2.501142006833
0	289445	36.13611816409	2.478262006833
0	290592	36.29295016409	2.595094006833
0	290647	36.30151016409	2.563654006833
0	290678	36.31007016409	2.532214006833
0	290724	36.31863016409	2.500774006833
0	290826	36.33575016409	2.477894006833
0	290877	36.34431016409	2.446454006833
0	290965	36.35618216409	2.418326006833
0	292630	36.53619816409	2.558342006833
0	292701	36.54475816409	2.526902006833
0	292785	36.55331816409	2.495462006833
0	292812	36.56187816409	2.464022006833
0	292924	36.57043816409	2.432582006833
0	292988	36.57899816409	2.401142006833
0	293055	36.58755816409	2.369702006833
0	294545	36.74327016409	2.485414006833
0	294605	36.75183016409	2.453974006833
0	294669	36.76039016409	2.422534006833
0	294782	36.76895016409	2.391094006833
0	294818	36.77751016409	2.359654006833
0	294872	36.78607016409	2.328214006833
0	294948	36.79463016409	2.296774006833
0	296357	36.95559016409	2.417734006833
0	296407	36.96415016409	2.386294006833
0	296490	36.97271016409	2.354854006833
0	296579	36.98127016409	2.323414006833
0	296631	36.98983016409	2.291974006833
0	296702	36.99839016409	2.260534006833
0	296774	37.00695016409	2.229094006833
0	298067	37.14691816409	2.329062006833
0	298142	37.15547816409	2.297622006833
0	298192	37.16403816409	2.266182006833
0	298258	37.17259816409	2.234742006833
0	298335	37.18115816409	2.203302006833
0	298366	37.18971816409	2.171862006833
0	298437	37.19827816409	2.140422006833
0	299826	37.34349416409	2.245638006833
0	299877	37.35205416409	2.214198006833
0	299971	37.36061416409	2.182758006833
0	300059	37.36917416409	2.165036508601
0	300079	37.37248616409	2.154630006833
0	300152	37.38104616409	2.149184124241
0	300186	37.38435816409	2.140220508601
0	301503	37.56631016409	2.308454006833
0	301551	37.57487016409	2.303008124241
0	301591	37.57818216409	2.294044508601
0	301613	37.58149416409	2.283638006833
0	301648	37.59005416409	2.278192124241
0	301694	37.59336616409	2.269228508601
0	301716	37.59667816409	2.258822006833
0	303012	37.81536616409	2.463504124241
0	303049	37.81867816409	2.454540508601
0	303071	37.82199016409	2.444134006833
0	303106	37.83055016409	2.438688124241
0	303152	37.83386216409	2.429724508601
0	303174	37.83717416409	2.419318006833
0	303229	37.84573416409	2.413872124241
1	120	1.554155402304	0
1	266	1.574143682304	0
1	389	1.594143682304	0
1	471	1.603449036389	0
1	555	1.615321036389	0.001177354085
1	776	1.634717550378	0.000573868074
1	850	1.643449036389	0
1	934	1.655321036389	0.001177354085
1	1133	1.674717550378	0.000573868074
1	1207	1.683449036389	0
1	1291	1.695321036389	0.001177354085
1	1490	1.714717550378	0.000573868074
1	1607	1.723449036389	0
1	1716	1.735321036389	0.001177354085
1	1901	1.754143682304	0
1	1966	1.763449036389	0
1	2045	1.775321036389	0.001177354085
1	2170	1.794143682304	0
1	2221	1.803449036389	0
1	2300	1.815321036389	0.001177354085
1	2425	1.834143682304	0
1	2476	1.843449036389	0
1	2645	1.863881036389	0.005248
1	2790	1.879065036389	0.004921354085
1	2927	1.890937036389	0.007488
1	2990	1.899497036389	0.000864
1	3104	1.914681036389	0.000537354085
1	3181	1.926553036389	0.003104
1	3445	1.969353036389	0.005904
1	3609	2.003593036389	0.000144
1	3821	2.043449036389	0
1	4025	2.083449036389	0
1	4229	2.123449036389	0
1	4433	2.163449036389	0
1	4637	2.203449036389	0
1	4853	2.24055016409	0.005641101533
1	4870	2.24386216409	0.000393101533
1	5032	2.26343016409	0.005248
1	5119	2.27530216409	0.000393101533
1	5211	2.28717416409	0.003705101533
1	5497	2.32472616409	0.026544
1	5563	2.32803816409	0.011838551813
1	5592	2.33135016409	0.006590551813
1	5704	2.33991016409	0.001728
1	5854	2.35840616409	0.002206551813
1	5989	2.37027816409	0.005518551813
1	6087	2.37883816409	0.000656
1	6282	2.39733416409	0.001134551813
1	6404	2.40920616409	0.004446551813
1	6558	2.42632616409	0.008144
1	7281	2.49231016409	0.056110551813
1	7314	2.49562216409	0.050862551813
1	7423	2.50418216409	0.046
1	7448	2.50749416409	0.031294551813
1	7498	2.51080616409	0.026046551813
1	7586	2.51936616409	0.021184
1	7612	2.52267816409	0.006478551813
1	7659	2.52599016409	0.001230551813
1	7854	2.54311016409	0.004928
1	8044	2.56160616409	0.005406551813
1	9107	2.65989416409	0.095134551813
1	9152	2.66845416409	0.090272
1	9188	2.67176616409	0.075566551813
1	9255	2.67507816409	0.070318551813
1	9295	2.68363816409	0.065456
1	9341	2.68695016409	0.050750551813
1	9400	2.69026216409	0.045502551813
1	9485	2.69882216409	0.04064
1	9519	2.70213416409	0.027225101533
1	9541	2.70544616409	0.021977101533
1	10609	2.84653416409	0.148352
1	10651	2.84984616409	0.134937101533
1	10666	2.85315816409	0.129689101533
1	10774	2.86171816409	0.123536
1	10785	2.86503016409	0.110121101533
1	10794	2.86834216409	0.104873101533
1	10848	2.87690216409	0.073453127701
1	10913	2.88546216409	0.042013127701
1	10960	2.89402216409	0.010573127701
1	11151	2.92632616409	0.002877127701
1	11944	3.05416616409	0.090717127701
1	12013	3.06272616409	0.059277127701
1	12044	3.07128616409	0.027837127701
1	12186	3.08840616409	0.004957127701
1	12466	3.13120616409	0.007757127701
1	12696	3.16544616409	0.001997127701
1	13052	3.20631016409	0.002861127701
1	13342	3.24386216409	0.000413127701
1	13641	3.28666216409	0.003213127701
1	13953	3.32752616409	0.004077127701
1	14261	3.36645416409	0.003005127701
1	14525	3.40400616409	0.000557127701
1	14897	3.44818216409	0.004733127701
1	15177	3.48379816409	0.000349127701
1	15485	3.52797416409	0.004525127701
1	15715	3.56359016409	0.000141127701
1	16061	3.60970216409	0.006253127701
1	16193	3.62682216409	0.000108782862
1	16379	3.64725416409	0.003805127701
1	16439	3.65581416409	0.009053127701
1	16535	3.66768616409	0.000972782862
1	16747	3.68811816409	0.004669127701
1	16799	3.69667816409	0.009917127701
1	16892	3.70855016409	0.001836782862
1	17103	3.72898216409	0.005533127701
1	17155	3.73754216409	0.010781127701
1	17644	3.80408616409	0.057372782862
1	17714	3.80739816409	0.043949127701
1	17747	3.81595816409	0.049197127701
1	17796	3.81927016409	0.032556782862
1	17824	3.82258216409	0.019133127701
1	17864	3.83114216409	0.024381127701
1	17910	3.83445416409	0.007740782862
1	18025	3.84632616409	0.002877127701
1	18097	3.85488616409	0.008125127701
1	18246	3.87007016409	0.003356782862
1	19450	4.00259816409	0.119149127701
1	19550	4.01115816409	0.124397127701
1	19576	4.01447016409	0.107756782862
1	19623	4.01778216409	0.094333127701
1	19712	4.02634216409	0.099581127701
1	19763	4.02965416409	0.082940782862
1	19810	4.03296616409	0.069517127701
1	19882	4.04152616409	0.074765127701
1	19933	4.04483816409	0.058124782862
1	19983	4.04815016409	0.044701127701
1	21491	4.18343016409	0.176669127701
1	21522	4.18674216409	0.160028782862
1	21572	4.19005416409	0.146605127701
1	21670	4.19861416409	0.151853127701
1	21702	4.20192616409	0.135212782862
1	21735	4.20523816409	0.121789127701
1	21814	4.21379816409	0.127037127701
1	21845	4.21711016409	0.110396782862
1	21896	4.22042216409	0.096973127701
1	21956	4.22898216409	0.102221127701
1	23406	4.36951016409	0.222796782862
1	23435	4.37282216409	0.209373127701
1	23514	4.38138216409	0.214621127701
1	23559	4.38469416409	0.197980782862
1	23576	4.38800616409	0.184557127701
1	23680	4.39656616409	0.189805127701
1	23711	4.39987816409	0.173164782862
1	23754	4.40319016409	0.159741127701
1	23867	4.41175016409	0.164989127701
1	23894	4.41506216409	0.148348782862
1	25404	4.58707816409	0.303629127701
1	25454	4.59563816409	0.308877127701
1	25466	4.59895016409	0.292236782862
1	25509	4.60226216409	0.278813127701
1	25588	4.61082216409	0.284061127701
1	25615	4.61413416409	0.267420782862
1	25642	4.61744616409	0.253997127701
1	25717	4.62600616409	0.259245127701
1	25752	4.62931816409	0.242604782862
1	25774	4.63263016409	0.229181127701
1	27044	4.78365416409	0.376893127701
1	27053	4.78696616409	0.360252782862
1	27106	4.79027816409	0.346829127701
1	27205	4.79883816409	0.352077127701
1	27217	4.80215016409	0.335436782862
1	27249	4.80546216409	0.322013127701
1	27320	4.81402216409	0.327261127701
1	27352	4.81733416409	0.310620782862
1	27402	4.82064616409	0.297197127701
1	27457	4.82920616409	0.302445127701
1	28753	4.96448616409	0.417772782862
1	28820	4.96779816409	0.404349127701
1	28871	4.97635816409	0.409597127701
1	28924	4.97967016409	0.392956782862
1	28949	4.98298216409	0.379533127701
1	29009	4.99154216409	0.384781127701
1	29063	4.99485416409	0.368140782862
1	29085	4.99816616409	0.354717127701
1	29165	5.00672616409	0.359965127701
1	29228	5.01003816409	0.343324782862
1	30530	5.18205416409	0.498605127701
1	30581	5.19061416409	0.503853127701
1	30618	5.19392616409	0.470477127701
1	30645	5.20248616409	0.439037127701
1	30746	5.21104616409	0.407597127701
1	30810	5.21960616409	0.376157127701
1	30857	5.22816616409	0.344717127701
1	30912	5.23672616409	0.313277127701
1	30963	5.24528616409	0.281837127701
1	31030	5.25384616409	0.250397127701
1	32359	5.41011816409	0.366669127701
1	32432	5.41867816409	0.335229127701
1	32462	5.42723816409	0.303789127701
1	32517	5.43579816409	0.272349127701
1	32610	5.44435816409	0.240909127701
1	32664	5.45291816409	0.209469127701
1	32758	5.46147816409	0.178029127701
1	32797	5.47003816409	0.146589127701
1	32864	5.47859816409	0.115149127701
1	32948	5.48715816409	0.083709127701
1	34404	5.65392616409	0.210477127701
1	34505	5.66248616409	0.215725127701
1	34536	5.66579816409	0.203936463343
1	34563	5.66911016409	0.185661127701
1	34613	5.67767016409	0.190909127701
1	34656	5.68098216409	0.179120463343
1	34694	5.68429416409	0.160845127701
1	34761	5.69285416409	0.166093127701
1	34793	5.69616616409	0.154221127701
1	34839	5.69947816409	0.136029127701
1	35914	5.85575016409	0.288989127701
1	35947	5.85906216409	0.277117127701
1	35976	5.86237416409	0.258925127701
1	36055	5.87093416409	0.264173127701
1	36086	5.87424616409	0.252301127701
1	36094	5.87755816409	0.234109127701
1	36149	5.88611816409	0.239357127701
1	36195	5.88943016409	0.227485127701
1	36217	5.89274216409	0.209293127701
1	36277	5.90130216409	0.177853127701
1	37573	6.07856616409	0.315117127701
1	37667	6.08712616409	0.283677127701
1	37735	6.09568616409	0.252237127701
1	37819	6.10424616409	0.220797127701
1	37850	6.11280616409	0.189357127701
1	37921	6.12136616409	0.157917127701
1	37992	6.12992616409	0.126477127701
1	38065	6.13848616409	0.095037127701
1	38099	6.14704616409	0.08297345379
1	38116	6.15035816409	0.066909127701
1	39470	6.32762216409	0.240861127701
1	39482	6.33093416409	0.22686145379
1	39525	6.33424616409	0.210797127701
1	39618	6.34280616409	0.179357127701
1	39634	6.35136616409	0.147917127701
1	39705	6.35992616409	0.116477127701
1	39776	6.36848616409	0.085037127701
1	39808	6.37704616409	0.053597127701
1	39858	6.38560616409	0.022157127701
1	40018	6.40935016409	0.005901127701
1	41242	6.57667816409	0.133229127701
1	41334	6.58523816409	0.101789127701
1	41411	6.59379816409	0.070349127701
1	41458	6.60235816409	0.038909127701
1	41558	6.61091816409	0.007469127701
1	41833	6.64515816409	0.001709127701
1	42188	6.68795816409	0.004509127701
1	42522	6.73075816409	0.007309127701
1	42797	6.76499816409	0.001549127701
1	43135	6.80586216409	0.002413127701
1	43510	6.84672616409	0.003277127701
1	43585	6.85528616409	0.008525127701
1	43678	6.86715816409	0.008525127701
1	43907	6.88759016409	0.004141127701
1	43970	6.89615016409	0.009389127701
1	44008	6.89946216409	0.000829127701
1	44379	6.93176616409	0.008317127701
1	44478	6.94032616409	0.013565127701
1	44511	6.94363816409	0.005005127701
1	44807	6.96544616409	0.001997127701
1	45705	7.03805416409	0.071293127701
1	45727	7.04136616409	0.062733127701
1	45800	7.04467816409	0.041229127701
1	45949	7.05323816409	0.046477127701
1	45968	7.05655016409	0.037917127701
1	46005	7.05986216409	0.016413127701
1	46102	7.06842216409	0.021661127701
1	46137	7.07173416409	0.013101127701
1	46267	7.08360616409	0.000157127701
1	46399	7.09216616409	0.005405127701
1	47901	7.20839016409	0.109757127701
1	47921	7.21170216409	0.088253127701
1	48055	7.22026216409	0.093501127701
1	48102	7.22357416409	0.084941127701
1	48135	7.22688616409	0.063437127701
1	48236	7.23544616409	0.068685127701
1	48262	7.23875816409	0.056813127701
1	48288	7.24207016409	0.038621127701
1	48421	7.25063016409	0.043869127701
1	48485	7.25394216409	0.031997127701
1	50015	7.38397416409	0.140525127701
1	50096	7.39253416409	0.145773127701
1	50133	7.39584616409	0.133901127701
1	50155	7.39915816409	0.115709127701
1	50289	7.40771816409	0.120957127701
1	50327	7.41103016409	0.109085127701
1	50353	7.41434216409	0.090893127701
1	50413	7.42290216409	0.096141127701
1	50476	7.42621416409	0.087581127701
1	50511	7.42952616409	0.066077127701
1	51810	7.57005416409	0.203293127701
1	51853	7.57336616409	0.203293127701
1	51870	7.57667816409	0.1872298944
1	51928	7.57999016409	0.176541127701
1	52023	7.58855016409	0.1791018944
1	52039	7.59186216409	0.1624138944
1	52084	7.59517416409	0.151725127701
1	52142	7.60373416409	0.1542858944
1	52194	7.60704616409	0.1375978944
1	52240	7.61035816409	0.126909127701
1	53575	7.75088616409	0.227437127701
1	53656	7.75944616409	0.221264
1	53672	7.76275816409	0.210734964623
1	53739	7.76607016409	0.202621127701
1	53819	7.77463016409	0.171181127701
1	53910	7.78319016409	0.139741127701
1	53945	7.79175016409	0.108301127701
1	54012	7.80031016409	0.076861127701
1	54116	7.80887016409	0.045421127701
1	54169	7.81743016409	0.013981127701
1	55445	7.96845416409	0.125005127701
1	55481	7.97701416409	0.093565127701
1	55566	7.98557416409	0.062125127701
1	55650	7.99413416409	0.030685127701
1	55677	8.00269416409	0.024512
1	55713	8.00600616409	0.013267187567
1	55772	8.00931816409	0.005869127701
1	55866	8.02119016409	0.003008
1	56020	8.03968616409	0.006947187567
1	56093	8.04631016409	0.002861127701
1	57108	8.17552616409	0.117344
1	57146	8.17883816409	0.106099187567
1	57175	8.18215016409	0.098701127701
1	57274	8.19071016409	0.092528
1	57310	8.19402216409	0.081283187567
1	57318	8.19733416409	0.073885127701
1	57394	8.20589416409	0.067712
1	57461	8.20920616409	0.056467187567
1	57483	8.21251816409	0.049069127701
1	57568	8.22107816409	0.042896
1	58901	8.39309416409	0.200355187567
1	58927	8.39640616409	0.192957127701
1	58993	8.40496616409	0.186784
1	59055	8.40827816409	0.175539187567
1	59063	8.41159016409	0.168141127701
1	59131	8.42015016409	0.161968
1	59157	8.42346216409	0.150723187567
1	59180	8.42677416409	0.143325127701
1	59259	8.43533416409	0.137152
1	59285	8.43864616409	0.125907187567
1	60453	8.58304616409	0.259597127701
1	60510	8.59160616409	0.253424
1	60560	8.59491816409	0.242179187567
1	60582	8.59823016409	0.234781127701
1	60658	8.60679016409	0.228608
1	60725	8.61010216409	0.217363187567
1	60747	8.61341416409	0.209965127701
1	60815	8.62197416409	0.203792
1	60861	8.62528616409	0.192547187567
1	60913	8.62859816409	0.185149127701
1	62064	8.75919016409	0.301008
1	62111	8.76250216409	0.289763187567
1	62161	8.76581416409	0.282365127701
1	62242	8.77437416409	0.276192
1	62258	8.77768616409	0.264947187567
1	62290	8.78099816409	0.257549127701
1	62350	8.78955816409	0.251376
1	62384	8.79287016409	0.240131187567
1	62418	8.79618216409	0.232733127701
1	62490	8.80474216409	0.22656
1	63470	8.93727016409	0.344531187567
1	63520	8.94058216409	0.337133127701
1	63566	8.94914216409	0.329931637699
1	63591	8.95245416409	0.319715187567
1	63619	8.95576616409	0.312317127701
1	63691	8.96432616409	0.305115637699
1	63745	8.96763816409	0.294899187567
1	63767	8.97095016409	0.287501127701
1	63827	8.97951016409	0.280299637699
1	63873	8.98282216409	0.270083187567
1	65025	9.13965416409	0.416205127701
1	65077	9.14821416409	0.384765127701
1	65141	9.15677416409	0.353325127701
1	65213	9.16533416409	0.321885127701
1	65264	9.17389416409	0.290445127701
1	65339	9.18245416409	0.259005127701
1	65375	9.19101416409	0.227565127701
1	65421	9.19957416409	0.232813127701
1	65454	9.20288616409	0.217582753325
1	65501	9.20619816409	0.202749127701
1	66549	9.36634216409	0.359581127701
1	66581	9.36965416409	0.344350753325
1	66610	9.37296616409	0.329517127701
1	66734	9.38152616409	0.334765127701
1	66746	9.38483816409	0.319534753325
1	66759	9.38815016409	0.304701127701
1	66813	9.39671016409	0.309949127701
1	66839	9.40002216409	0.294718753325
1	66882	9.40333416409	0.279885127701
1	66961	9.41189416409	0.285133127701
1	67858	9.53392616409	0.388622753325
1	67889	9.53723816409	0.373789127701
1	67954	9.54579816409	0.379037127701
1	67984	9.54911016409	0.363806753325
1	67992	9.55242216409	0.348973127701
1	68042	9.56098216409	0.354221127701
1	68081	9.56429416409	0.338990753325
1	68135	9.56760616409	0.324157127701
1	68171	9.57616616409	0.292717127701
1	68235	9.58472616409	0.261277127701
1	69068	9.70675816409	0.343309127701
1	69118	9.71531816409	0.348557127701
1	69144	9.71863016409	0.333017179144
1	69167	9.72194216409	0.318493127701
1	69241	9.73050216409	0.323741127701
1	69268	9.73381416409	0.308201179144
1	69295	9.73712616409	0.293677127701
1	69349	9.74568616409	0.298925127701
1	69380	9.74899816409	0.265549127701
1	69426	9.75755816409	0.234109127701
1	70424	9.91770216409	0.354253127701
1	70489	9.92626216409	0.322813127701
1	70536	9.93482216409	0.291373127701
1	70591	9.94338216409	0.259933127701
1	70622	9.95194216409	0.228493127701
1	70668	9.96050216409	0.197053127701
1	70739	9.96906216409	0.165613127701
1	70771	9.97762216409	0.134173127701
1	70821	9.98618216409	0.102733127701
1	70872	9.99474216409	0.071293127701
1	72129	10.16675816409	0.203309127701
1	72198	10.17531816409	0.171869127701
1	72266	10.18387816409	0.140429127701
1	72305	10.19243816409	0.108989127701
1	72351	10.20099816409	0.077549127701
1	72447	10.20955816409	0.046109127701
1	72503	10.21811816409	0.014669127701
1	72656	10.24379816409	0.000349127701
1	72957	10.28659816409	0.003149127701
1	73311	10.32939816409	0.005949127701
1	74062	10.40531816409	0.041869127701
1	74131	10.41387816409	0.010429127701
1	74431	10.44811816409	0.004669127701
1	74711	10.49091816409	0.007469127701
1	74992	10.52847016409	0.005021127701
1	75305	10.56739816409	0.003949127701
1	75617	10.60632616409	0.002877127701
1	75932	10.64387816409	0.000429127701
1	76286	10.68667816409	0.003229127701
1	76674	10.72754216409	0.004093127701
1	77010	10.76647016409	0.003021127701
1	77410	10.81064616409	0.007197127701
1	77639	10.84488616409	0.001437127701
1	77940	10.88768616409	0.004237127701
1	78312	10.93186216409	0.008413127701
1	78664	10.96747816409	0.004029127701
1	78969	11.00503016409	0.001581127701
1	79340	11.04727016409	0.003821127701
1	79703	11.09144616409	0.007997127701
1	79970	11.13037416409	0.006925127701
1	80168	11.16461416409	0.001165127701
1	80418	11.20741416409	0.003965127701
1	80648	11.25021416409	0.006765127701
1	80884	11.28583016409	0.002381127701
1	81239	11.33331816409	0.007223741389
1	81441	11.36755816409	0.004109127701
1	81671	11.41035816409	0.006909127701
1	81855	11.44459816409	0.001149127701
1	82099	11.48352616409	7.7127701e-005
1	82413	11.52963816409	0.006189127701
1	82577	11.56387816409	0.000429127701
1	82827	11.60667816409	0.003229127701
1	83115	11.65085416409	0.007405127701
1	83385	11.69171816409	0.008269127701
1	83569	11.72595816409	0.002509127701
1	83819	11.76875816409	0.005309127701
1	84061	11.80962216409	0.006173127701
1	84332	11.84523816409	0.001789127701
1	84369	11.85379816409	0.007037127701
1	84592	11.88610216409	0.002653127701
1	84842	11.92890216409	0.005453127701
1	85072	11.97170216409	0.008253127701
1	85393	12.00731816409	0.003869127701
1	85684	12.04818216409	0.004733127701
1	85990	12.08904616409	0.005597127701
1	86246	12.12659816409	0.003149127701
1	86550	12.16939816409	0.005949127701
1	86818	12.20501416409	0.001565127701
1	87188	12.24919016409	0.005741127701
1	87468	12.29199016409	0.008541127701
1	87698	12.32623016409	0.002781127701
1	87952	12.36903016409	0.005581127701
1	88148	12.40658216409	0.003133127701
1	88430	12.44551016409	0.002061127701
1	88720	12.49162216409	0.008173127701
1	88904	12.52586216409	0.002413127701
1	89192	12.56672616409	0.003277127701
1	89536	12.60759016409	0.004141127701
1	89833	12.65039016409	0.006941127701
1	90050	12.68463016409	0.001181127701
1	90350	12.72743016409	0.003981127701
1	90622	12.77023016409	0.006781127701
1	90877	12.80584616409	0.002397127701
1	91234	12.85195816409	0.008509127701
1	91425	12.87763816409	0.007125120647
1	91559	12.88951016409	0.006061127701
1	91699	12.90663016409	0.008448
1	91813	12.91850216409	0.007989120647
1	91980	12.93037416409	0.006925127701
1	92043	12.93893416409	0.000752
1	92156	12.95080616409	0.000293120647
1	92385	12.97123816409	0.007789127701
1	92453	12.97979816409	0.001616
1	93344	13.07008616409	0.079573120647
1	93402	13.07339816409	0.069949127701
1	93457	13.08195816409	0.063776
1	93523	13.08527016409	0.054757120647
1	93568	13.08858216409	0.045133127701
1	93628	13.09714216409	0.03896
1	93683	13.10045416409	0.029941120647
1	93709	13.10376616409	0.020317127701
1	93785	13.11232616409	0.014144
1	93879	13.12419816409	0.000749127701
1	95009	13.24291816409	0.079469127701
1	95099	13.25147816409	0.048029127701
1	95173	13.26003816409	0.016589127701
1	95444	13.28903016409	0.005581127701
1	95745	13.32464616409	0.001197127701
1	96087	13.36551016409	0.002061127701
1	96511	13.41162216409	0.008173127701
1	96730	13.43730216409	0.002664299106
1	96777	13.44392616409	0.000477127701
1	96977	13.46104616409	0.002864
1	97158	13.47623016409	0.001592299106
1	97356	13.49141416409	0.007965127701
1	97409	13.49997416409	0.001792
1	97576	13.51515816409	0.000520299106
1	97788	13.53034216409	0.006893127701
1	97837	13.53890216409	0.00072
1	98027	13.55933416409	0.004696299106
1	98180	13.57120616409	0.007757127701
1	98791	13.63968616409	0.061504
1	98804	13.64299816409	0.048360299106
1	98853	13.64631016409	0.042861127701
1	98985	13.65487016409	0.036688
1	99026	13.65818216409	0.023544299106
1	99045	13.66149416409	0.018045127701
1	99120	13.67005416409	0.011872
1	99211	13.68192616409	0.007288299106
1	99261	13.68523816409	0.001789127701
1	99454	13.70567016409	0.007488
1	100826	13.84151016409	0.126872299106
1	100862	13.84482216409	0.121373127701
1	100961	13.85338216409	0.1152
1	100995	13.85669416409	0.102056299106
1	101032	13.86000616409	0.096557127701
1	101087	13.86856616409	0.089933127701
1	101138	13.87187816409	0.077240299106
1	101189	13.87519016409	0.071741127701
1	101224	13.88375016409	0.065117127701
1	101270	13.88706216409	0.052424299106
1	102835	14.04333416409	0.199885127701
1	102947	14.05189416409	0.193712
1	102959	14.05520616409	0.180568299106
1	103014	14.05851816409	0.175069127701
1	103070	14.06707816409	0.168896
1	103125	14.07039016409	0.155752299106
1	103168	14.07370216409	0.150253127701
1	103203	14.08226216409	0.141090730171
1	103270	14.08557416409	0.130936299106
1	103316	14.08888616409	0.125437127701
1	105060	14.24515816409	0.263986730171
1	105096	14.24847016409	0.253832299106
1	105159	14.25178216409	0.248333127701
1	105270	14.26034216409	0.239170730171
1	105289	14.26365416409	0.229016299106
1	105317	14.26696616409	0.223517127701
1	105431	14.27552616409	0.214354730171
1	105481	14.27883816409	0.204200299106
1	105505	14.28215016409	0.198701127701
1	105642	14.29071016409	0.189538730171
1	107377	14.43648616409	0.321848299106
1	107409	14.43979816409	0.316349127701
1	107521	14.44835816409	0.307186730171
1	107584	14.45167016409	0.297032299106
1	107592	14.45498216409	0.291533127701
1	107685	14.46354216409	0.282370730171
1	107731	14.46685416409	0.272216299106
1	107803	14.47016616409	0.266717127701
1	107891	14.47872616409	0.257554730171
1	107919	14.48203816409	0.247400299106
1	109436	14.63306216409	0.389613127701
1	109504	14.64162216409	0.380450730171
1	109545	14.64493416409	0.370296299106
1	109591	14.64824616409	0.364797127701
1	109647	14.65680616409	0.355634730171
1	109715	14.66011816409	0.345480299106
1	109749	14.66343016409	0.339981127701
1	109784	14.67199016409	0.330818730171
1	109847	14.67530216409	0.320664299106
1	109889	14.67861416409	0.315165127701
1	111320	14.83488616409	0.453714730171
1	111369	14.83819816409	0.443560299106
1	111399	14.84151016409	0.438061127701
1	111508	14.85007016409	0.428898730171
1	111520	14.85338216409	0.418744299106
1	111553	14.85669416409	0.413245127701
1	111637	14.86525416409	0.404082730171
1	111663	14.86856616409	0.393928299106
1	111690	14.87187816409	0.388429127701
1	111777	14.88043816409	0.379266730171
1	113127	14.99997416409	0.485336299106
1	113175	15.00328616409	0.479837127701
1	113277	15.01184616409	0.470674730171
1	113302	15.01515816409	0.460520299106
1	113356	15.01847016409	0.455021127701
1	113421	15.02703016409	0.423581127701
1	113502	15.03559016409	0.392141127701
1	113553	15.04415016409	0.360701127701
1	113632	15.05271016409	0.329261127701
1	113729	15.06127016409	0.297821127701
1	114825	15.19130216409	0.387853127701
1	114875	15.19986216409	0.356413127701
1	114985	15.20842216409	0.324973127701
1	115017	15.21698216409	0.293533127701
1	115088	15.22554216409	0.298781127701
1	115109	15.22885416409	0.282954069938
1	115131	15.23216616409	0.268717127701
1	115198	15.24072616409	0.273965127701
1	115232	15.24403816409	0.258138069938
1	115299	15.24735016409	0.243901127701
1	116433	15.38263016409	0.375869127701
1	116459	15.38594216409	0.360042069938
1	116509	15.38925416409	0.345805127701
1	116590	15.39781416409	0.351053127701
1	116601	15.40112616409	0.335226069938
1	116634	15.40443816409	0.320989127701
1	116705	15.41299816409	0.326237127701
1	116737	15.41631016409	0.310410069938
1	116787	15.41962216409	0.296173127701
1	116838	15.42818216409	0.301421127701
1	117893	15.54771816409	0.401818069938
1	117919	15.55103016409	0.387581127701
1	118009	15.55959016409	0.392829127701
1	118034	15.56290216409	0.377002069938
1	118067	15.56621416409	0.362765127701
1	118138	15.57477416409	0.368013127701
1	118194	15.57808616409	0.352186069938
1	118220	15.58139816409	0.337949127701
1	118255	15.58995816409	0.343197127701
1	118318	15.59327016409	0.327370069938
1	119692	15.72855016409	0.445101127701
1	119789	15.73711016409	0.450349127701
1	119862	15.74042216409	0.434522069938
1	119892	15.74373416409	0.420285127701
1	119992	15.75229416409	0.425533127701
1	120048	15.75560616409	0.409706069938
1	120078	15.75891816409	0.395469127701
1	120178	15.76747816409	0.364029127701
1	120281	15.77603816409	0.332589127701
1	120366	15.78459816409	0.301149127701
1	121935	15.94611816409	0.420078172089
1	122038	15.95467816409	0.388638172089
1	122076	15.96323816409	0.357198172089
1	122164	15.97179816409	0.325758172089
1	122249	15.98035816409	0.294318172089
1	122280	15.98891816409	0.262878172089
1	122376	15.99747816409	0.259296
1	122392	16.00079016409	0.246798374743
1	122415	16.00410216409	0.238062172089
1	122523	16.01266216409	0.23448
1	123773	16.13219816409	0.338206374743
1	123803	16.13551016409	0.329470172089
1	123886	16.14407016409	0.325888
1	123911	16.14738216409	0.313390374743
1	123944	16.15069416409	0.304654172089
1	124024	16.15925416409	0.301072
1	124050	16.16256616409	0.288574374743
1	124093	16.16587816409	0.279838172089
1	124185	16.17443816409	0.248398172089
1	124267	16.18299816409	0.216958172089
1	125695	16.31303016409	0.306990172089
1	125746	16.32159016409	0.275550172089
1	125856	16.33015016409	0.244110172089
1	125953	16.33871016409	0.212670172089
1	125996	16.34727016409	0.181230172089
1	126114	16.35583016409	0.149790172089
1	126165	16.36439016409	0.118350172089
1	126270	16.37295016409	0.097173763426
1	126294	16.37626216409	0.091925763426
1	126362	16.38482216409	0.085301763426
1	128026	16.54634216409	0.230565763426
1	128039	16.54965416409	0.225317763426
1	128171	16.55821416409	0.218693763426
1	128196	16.56152616409	0.205749763426
1	128229	16.56483816409	0.200501763426
1	128321	16.57339816409	0.193877763426
1	128359	16.57671016409	0.180933763426
1	128411	16.58002216409	0.175685763426
1	128446	16.58858216409	0.169061763426
1	128496	16.59189416409	0.156117763426
1	129992	16.75866216409	0.314325763426
1	130047	16.76722216409	0.307701763426
1	130110	16.77053416409	0.294757763426
1	130153	16.77384616409	0.289509763426
1	130225	16.78240616409	0.282885763426
1	130251	16.78571816409	0.269941763426
1	130274	16.78903016409	0.264693763426
1	130378	16.79759016409	0.258069763426
1	130404	16.80090216409	0.245125763426
1	130427	16.80421416409	0.239877763426
1	131776	16.96573416409	0.359694172089
1	131878	16.97429416409	0.328254172089
1	131946	16.98285416409	0.296814172089
1	131997	16.99141416409	0.265374172089
1	132065	16.99997416409	0.233934172089
1	132144	17.00853416409	0.202494172089
1	132217	17.01709416409	0.173645127701
1	132276	17.02565416409	0.142205127701
1	132365	17.03421416409	0.110765127701
1	132399	17.04277416409	0.103721472274
1	133469	17.18855016409	0.225101127701
1	133515	17.19711016409	0.230349127701
1	133541	17.20042216409	0.221369472274
1	133568	17.20373416409	0.200285127701
1	133638	17.21229416409	0.205533127701
1	133669	17.21560616409	0.196553472274
1	133716	17.21891816409	0.175469127701
1	133747	17.22747816409	0.180717127701
1	133777	17.23079016409	0.171737472274
1	133819	17.23410216409	0.150653127701
1	134918	17.36938216409	0.282621127701
1	134957	17.37269416409	0.249245127701
1	135040	17.38125416409	0.217805127701
1	135070	17.38981416409	0.186365127701
1	135141	17.39837416409	0.154925127701
1	135192	17.40693416409	0.123485127701
1	135260	17.41549416409	0.092045127701
1	135319	17.42405416409	0.060605127701
1	135370	17.43261416409	0.029165127701
1	135492	17.44973416409	0.006285127701
1	136578	17.58170216409	0.098253127701
1	136613	17.59026216409	0.066813127701
1	136673	17.59882216409	0.035373127701
1	136744	17.60738216409	0.003933127701
1	137005	17.64631016409	0.002861127701
1	137358	17.68717416409	0.003725127701
1	137712	17.72997416409	0.006525127701
1	137971	17.76421416409	0.000765127701
1	138394	17.80839016409	0.004941127701
1	138695	17.84400616409	0.000557127701
1	139132	17.88818216409	0.004733127701
1	139433	17.92379816409	0.000349127701
1	139794	17.96659816409	0.003149127701
1	140173	18.00939816409	0.005949127701
1	140424	18.04501416409	0.001565127701
1	140811	18.08919016409	0.005741127701
1	141070	18.13199016409	0.008541127701
1	141254	18.16623016409	0.002781127701
1	141504	18.20903016409	0.005581127701
1	141750	18.24658216409	0.002279815966
1	142082	18.28551016409	0.001207815966
1	142346	18.32831016409	0.004861127701
1	142576	18.37111016409	0.007661127701
1	142760	18.40535016409	0.001901127701
1	143066	18.44427816409	0.000829127701
1	143372	18.48707816409	0.003629127701
1	143622	18.52987816409	0.006429127701
1	143786	18.56411816409	0.000669127701
1	144081	18.60691816409	0.003469127701
1	144394	18.64778216409	0.004333127701
1	144714	18.68864616409	0.005197127701
1	144998	18.73144616409	0.007997127701
1	145227	18.76568616409	0.002237127701
1	145528	18.80848616409	0.005037127701
1	145837	18.85128616409	0.007837127701
1	145914	18.85984616409	0.013085127701
1	145930	18.86315816409	0.002221150894
1	146205	18.88496616409	0.001517127701
1	146246	18.89352616409	0.006765127701
1	146345	18.90346216409	0.002525150894
1	146556	18.92389416409	0.000445127701
1	146669	18.93245416409	0.005693127701
1	146817	18.94763816409	0.005693127701
1	147041	18.96613416409	0.002685127701
1	147131	18.97469416409	0.007933127701
1	147249	18.98463016409	0.002685127701
1	147600	19.01168616409	0.008237127701
1	147670	19.02024616409	0.013485127701
1	147686	19.02355816409	0.001613127701
1	147971	19.04536616409	0.001917127701
1	148412	19.08567016409	0.038909127701
1	148445	19.08898216409	0.027037127701
1	148478	19.09229416409	0.008845127701
1	148603	19.10085416409	0.014093127701
1	148618	19.10416616409	0.003229150894
1	148850	19.12597416409	0.002525127701
1	148906	19.13453416409	0.007773127701
1	149008	19.14115816409	0.000221150894
1	149283	19.16821416409	0.004765127701
1	149353	19.17677416409	0.010013127701
1	150184	19.26125416409	0.080317150894
1	150223	19.26456616409	0.061117127701
1	150301	19.27312616409	0.066365127701
1	150343	19.27643816409	0.055501150894
1	150351	19.27975016409	0.036301127701
1	150455	19.28831016409	0.041549127701
1	150485	19.29162216409	0.030685150894
1	150508	19.29493416409	0.011485127701
1	150592	19.30349416409	0.016733127701
1	150619	19.30680616409	0.005869150894
[...]
7	106991	14.39773058409	2.310478846833
7	107064	14.40629058409	2.279038846833
7	107152	14.41485058409	2.247598846833
7	107241	14.42341058409	2.216158846833
7	107341	14.43197058409	2.184718846833
7	107425	14.44053058409	2.153278846833
7	107537	14.44909058409	2.121838846833
7	109155	14.59430658409	2.227054846833
7	109207	14.60286658409	2.195614846833
7	109277	14.61142658409	2.164174846833
7	109371	14.61998658409	2.132734846833
7	109409	14.62854658409	2.101294846833
7	109477	14.63710658409	2.069854846833
7	109561	14.64566658409	2.038414846833
7	111031	14.79613058409	2.148878846833
7	111107	14.80469058409	2.117438846833
7	111161	14.81325058409	2.085998846833
7	111263	14.82181058409	2.054558846833
7	111294	14.83037058409	2.023118846833
7	111385	14.83893058409	1.991678846833
7	111492	14.84749058409	1.960238846833
7	113058	14.99408258409	2.066830846833
7	113256	15.00926658409	2.042014846833
7	114761	15.18209858409	2.174846846833
7	114869	15.19728258409	2.150030846833
7	116274	15.36486658409	2.277614846833
7	116427	15.38005058409	2.252798846833
7	116574	15.39523458409	2.227982846833
7	117860	15.54182658409	2.334574846833
7	117988	15.55701058409	2.309758846833
7	119588	15.71934658409	2.432094846833
7	119771	15.73453058409	2.407278846833
7	121771	15.92835458409	2.561102846833
7	121929	15.94353858409	2.536286846833
7	122074	15.95872258409	2.511470846833
7	123687	16.12630658409	2.639054846833
7	123869	16.14149058409	2.614238846833
7	125537	16.30382658409	2.736574846833
7	125740	16.31901058409	2.711758846833
7	127736	16.51283458409	2.865582846833
7	127839	16.52470658409	2.757454846833
7	127944	16.53326658409	2.726014846833
7	128020	16.54182658409	2.694574846833
7	128079	16.55038658409	2.663134846833
7	128187	16.55894658409	2.631694846833
7	129766	16.73040258409	2.763150846833
7	129847	16.73896258409	2.731710846833
7	129881	16.74752258409	2.700270846833
7	129982	16.75608258409	2.668830846833
7	130037	16.76464258409	2.637390846833
7	131597	16.94797058409	2.780718846833
7	131745	16.96315458409	2.755902846833
7	131932	16.97833858409	2.731086846833
7	133432	17.18265858409	2.815406846833
7	133531	17.19784258409	2.790590846833
7	134807	17.35493058409	2.907678846833
7	134846	17.36349058409	2.796238846833
7	135015	17.37867458409	2.771422846833
7	136470	17.56725058409	2.919998846833
7	136521	17.57581058409	2.808558846833
7	136603	17.58768258409	2.780430846833
7	138092	17.77681858409	2.929566846833
7	138278	17.79725058409	2.829998846833
7	138439	17.81243458409	2.805182846833
7	138499	17.82099458409	2.773742846833
7	139751	17.96208258409	2.874830846833
7	139846	17.97064258409	2.843390846833
7	139923	17.97920258409	2.811950846833
7	140075	17.99632258409	2.789070846833
7	140130	18.00488258409	2.757630846833
7	140202	18.01344258409	2.726190846833
7	140257	18.02200258409	2.694750846833
7	141354	18.17883458409	2.811582846833
7	141431	18.19595458409	2.788702846833
7	141482	18.20451458409	2.757262846833
7	141549	18.21307458409	2.725822846833
7	141609	18.22163458409	2.694382846833
7	141711	18.23875458409	2.671502846833
7	141786	18.24731458409	2.640062846833
7	142804	18.40939458409	2.762142846833
7	142872	18.41795458409	2.730702846833
7	143048	18.44169858409	2.714446846833
7	144367	18.64520258409	2.877950846833
7	144496	18.66038658409	2.853134846833
7	144651	18.68413058409	2.836878846833
7	146299	18.89757058409	2.970318846833
7	146663	18.92793858409	2.960686846833
7	148476	19.09165058409	2.964398846833
7	149971	19.24349058409	3.076238846833
7	150102	19.25536258409	2.968110846833
7	150260	19.27054658409	2.943294846833
7	151656	19.42238658409	3.055134846833
7	151691	19.43094658409	2.943694846833
7	151831	19.44613058409	2.918878846833
7	153332	19.63995458409	3.072702846833
7	153441	19.65182658409	2.924574846833
7	153594	19.66701058409	2.899758846833
7	155049	19.85033858409	2.923086846833
7	155186	19.86552258409	2.898270846833
7	156859	20.06984258409	3.062590846833
7	156922	20.07840258409	2.911150846833
7	156981	20.08696258409	2.879710846833
7	157056	20.09552258409	2.848270846833
7	157112	20.10408258409	2.816830846833
7	158766	20.29265858409	2.965406846833
7	158931	20.30784258409	2.940590846833
7	160454	20.50166658409	3.094414846833
7	160574	20.51685058409	2.949598846833
7	160646	20.52541058409	2.918158846833
7	160701	20.53397058409	2.886718846833
7	160788	20.54253058409	2.855278846833
7	162125	20.77171458409	3.044462846833
7	162181	20.78027458409	3.013022846833
7	162212	20.78883458409	2.981582846833
7	162258	20.79739458409	2.950142846833
7	162309	20.80595458409	2.918702846833
7	162356	20.81451458409	2.887262846833
7	162411	20.82307458409	2.855822846833
7	164124	21.05888258409	3.051630846833
7	164244	21.07406658409	3.026814846833
7	165625	21.25739458409	3.170142846833
7	165700	21.26595458409	3.098702846833
7	165751	21.27451458409	3.067262846833
7	165798	21.28307458409	3.035822846833
7	165877	21.29163458409	3.004382846833
7	165976	21.30019458409	2.972942846833
7	167052	21.45065858409	3.083406846833
7	167108	21.45921858409	3.051966846833
7	167135	21.46777858409	3.020526846833
7	167185	21.47633858409	2.989086846833
7	167240	21.48489858409	2.957646846833
7	167295	21.49345858409	2.926206846833
7	168600	21.66629058409	3.059038846833
7	168704	21.68147458409	3.034222846833
7	170279	21.88579458409	3.198542846833
7	170457	21.90429058409	3.017038846833
7	172625	22.10336258409	3.176110846833
7	172744	22.11523458409	3.067982846833
7	172974	22.13041858409	3.043166846833
7	175068	22.30849858409	3.181246846833
7	175261	22.32368258409	3.076430846833
7	177148	22.52275458409	3.235502846833
7	177223	22.53131458409	3.204062846833
7	177279	22.53987458409	3.132622846833
7	177331	22.54843458409	3.101182846833
7	177381	22.55699458409	3.069742846833
7	177449	22.56555458409	3.038302846833
7	177507	22.57411458409	3.006862846833
7	179111	22.76656258409	3.159310846833
7	179162	22.77512258409	3.127870846833
7	179238	22.78368258409	3.096430846833
7	179269	22.79224258409	3.064990846833
7	179335	22.80080258409	3.033550846833
7	179415	22.80936258409	3.002110846833
7	179494	22.81792258409	2.970670846833
7	180970	22.98937858409	3.102126846833
7	181066	22.99793858409	3.070686846833
7	181122	23.00649858409	3.039246846833
7	181193	23.01505858409	3.007806846833
7	181274	23.02361858409	2.976366846833
7	181329	23.03217858409	2.944926846833
7	181415	23.04073858409	2.913486846833
7	182800	23.18926658409	3.022014846833
7	182856	23.19782658409	2.990574846833
7	182948	23.20638658409	2.959134846833
7	183024	23.21494658409	2.927694846833
7	183084	23.22350658409	2.896254846833
7	183165	23.23206658409	2.864814846833
7	184909	23.39302658409	2.985774846833
7	184940	23.40158658409	2.954334846833
7	185077	23.41014658409	2.922894846833
7	185136	23.41870658409	2.891454846833
7	185209	23.42726658409	2.860014846833
7	185293	23.43582658409	2.828574846833
7	185385	23.44438658409	2.797134846833
7	186897	23.59485058409	2.907598846833
7	186924	23.60341058409	2.876158846833
7	187044	23.61197058409	2.844718846833
7	187100	23.62053058409	2.813278846833
7	187172	23.62909058409	2.781838846833
7	187231	23.63765058409	2.750398846833
7	187342	23.64621058409	2.718958846833
7	188781	23.79667458409	2.829422846833
7	188869	23.80523458409	2.797982846833
7	188928	23.81379458409	2.766542846833
7	188984	23.82235458409	2.735102846833
7	189061	23.83091458409	2.703662846833
7	189115	23.83947458409	2.672222846833
7	189243	23.84803458409	2.640782846833
7	190565	24.00374658409	2.756494846833
7	190636	24.01230658409	2.725054846833
7	190692	24.02086658409	2.693614846833
7	190743	24.02942658409	2.662174846833
7	190794	24.03798658409	2.630734846833
7	190865	24.04654658409	2.599294846833
7	190925	24.05510658409	2.567854846833
7	192219	24.20557058409	2.678318846833
7	192271	24.21413058409	2.646878846833
7	192326	24.22269058409	2.615438846833
7	192378	24.23125058409	2.583998846833
7	192428	24.23981058409	2.552558846833
7	192520	24.24837058409	2.521118846833
7	192556	24.25693058409	2.489678846833
7	194084	24.47037058409	2.663118846833
7	194134	24.47893058409	2.631678846833
7	194230	24.48749058409	2.600238846833
7	194266	24.49605058409	2.568798846833
7	194363	24.50792258409	2.540670846833
7	195977	24.72273858409	2.715486846833
7	196129	24.73792258409	2.690670846833
7	197584	24.92649858409	2.839246846833
7	197757	24.94168258409	2.814430846833
7	197878	24.95686658409	2.789614846833
7	199665	25.12969858409	2.922446846833
7	199844	25.14488258409	2.897630846833
7	201499	25.29672258409	3.009470846833
7	201647	25.31190658409	2.984654846833
7	203207	25.46374658409	3.096494846833
7	203300	25.47561858409	2.948366846833
7	203356	25.48417858409	2.916926846833
7	203427	25.49273858409	2.885486846833
7	203487	25.50129858409	2.854046846833
7	203533	25.50985858409	2.822606846833
7	204612	25.65507458409	2.927822846833
7	204663	25.66363458409	2.896382846833
7	204694	25.67219458409	2.864942846833
7	204740	25.68075458409	2.833502846833
7	204811	25.68931458409	2.802062846833
7	204847	25.69787458409	2.770622846833
7	204922	25.70643458409	2.739182846833
7	206246	25.86214658409	2.854894846833
7	206297	25.87070658409	2.823454846833
7	206373	25.87926658409	2.792014846833
7	206461	25.88782658409	2.760574846833
7	206517	25.89638658409	2.729134846833
7	206576	25.90494658409	2.697694846833
7	206672	25.91350658409	2.666254846833
7	208276	26.11645058409	2.829198846833
7	208331	26.12501058409	2.797758846833
7	208395	26.13357058409	2.766318846833
7	208458	26.14213058409	2.734878846833
7	208489	26.15069058409	2.703438846833
7	208564	26.15925058409	2.671998846833
7	208658	26.16781058409	2.640558846833
7	210019	26.34976258409	2.782510846833
7	210110	26.35832258409	2.751070846833
7	210166	26.36688258409	2.719630846833
7	210251	26.37544258409	2.688190846833
7	210310	26.38400258409	2.656750846833
7	210349	26.39256258409	2.625310846833
7	210460	26.40112258409	2.593870846833
7	212178	26.60406658409	2.756814846833
7	212244	26.61262658409	2.725374846833
7	212325	26.62118658409	2.693934846833
7	212356	26.62974658409	2.662494846833
7	212423	26.63830658409	2.631054846833
7	212478	26.64686658409	2.599614846833
7	212546	26.65542658409	2.568174846833
7	213958	26.84262658409	2.715374846833
7	214028	26.85118658409	2.683934846833
7	214105	26.85974658409	2.652494846833
7	214136	26.86830658409	2.621054846833
7	214207	26.87686658409	2.589614846833
7	214279	26.88542658409	2.558174846833
7	214350	26.89398658409	2.526734846833
7	215431	27.01933058409	2.612078846833
7	215533	27.03645058409	2.589198846833
7	215588	27.04501058409	2.557758846833
7	215652	27.05357058409	2.526318846833
7	215715	27.06213058409	2.494878846833
7	215821	27.07925058409	2.471998846833
7	216945	27.26369858409	2.616446846833
7	217123	27.28744258409	2.600190846833
7	218474	27.47520258409	2.747950846833
7	218661	27.49038658409	2.723134846833
7	218947	27.51744258409	2.710190846833
7	220737	27.73032258409	2.883070846833
7	220866	27.74550658409	2.858254846833
7	222645	27.95701058409	3.029758846833
7	222771	27.96888258409	3.001630846833
7	222936	27.98406658409	2.976814846833
7	224725	28.16214658409	3.114894846833
7	224877	28.17401858409	3.046766846833
7	225042	28.18920258409	3.021950846833
7	226745	28.36534658409	3.078094846833
7	226911	28.38053058409	3.053278846833
7	228865	28.56910658409	3.121854846833
7	229019	28.58429058409	3.097038846833
7	229105	28.59285058409	3.065598846833
7	230661	28.76430658409	3.197054846833
7	230740	28.77286658409	3.165614846833
7	230821	28.78142658409	3.134174846833
7	230872	28.78998658409	3.102734846833
7	230931	28.79854658409	3.071294846833
7	231011	28.80710658409	3.039854846833
7	231094	28.81566658409	3.008414846833
7	232474	28.98187458409	3.134622846833
7	232508	28.99043458409	3.103182846833
7	232563	28.99899458409	3.071742846833
7	232659	29.00755458409	3.040302846833
7	232691	29.01611458409	3.008862846833
7	232758	29.02467458409	2.977422846833
7	232821	29.03323458409	2.945982846833
7	234195	29.21518658409	3.087934846833
7	234246	29.22374658409	3.056494846833
7	234277	29.23230658409	3.025054846833
7	234340	29.24086658409	2.993614846833
7	234448	29.24942658409	2.962174846833
7	234521	29.25798658409	2.930734846833
7	236242	29.46949058409	3.102238846833
7	236382	29.48467458409	3.077422846833
7	236535	29.49985858409	3.052606846833
7	238184	29.72129858409	3.114046846833
7	238263	29.72985858409	3.082606846833
7	238340	29.73841858409	3.051166846833
7	239767	29.93086658409	3.203614846833
7	239848	29.93942658409	3.172174846833
7	239875	29.94798658409	3.100734846833
7	239942	29.95654658409	3.069294846833
7	239997	29.96510658409	3.037854846833
7	240068	29.97366658409	3.006414846833
7	240128	29.98222658409	2.974974846833
7	241647	30.16942658409	3.122174846833
7	241728	30.17798658409	3.090734846833
7	241783	30.18654658409	3.059294846833
7	241868	30.19510658409	3.027854846833
7	241902	30.20366658409	2.996414846833
7	241981	30.21222658409	2.964974846833
7	242082	30.22078658409	2.933534846833
7	243770	30.38505858409	3.057806846833
7	243947	30.40024258409	3.032990846833
7	245483	30.55208258409	3.144830846833
7	245601	30.56395458409	3.116702846833
7	245786	30.57913858409	3.091886846833
7	247004	30.73097858409	3.203726846833
7	247060	30.73953858409	3.012286846833
7	247087	30.74809858409	2.980846846833
7	247137	30.75665858409	2.949406846833
7	247188	30.76521858409	2.917966846833
7	247239	30.77377858409	2.886526846833
7	248412	30.92949058409	3.002238846833
7	248472	30.93805058409	2.970798846833
7	248499	30.94661058409	2.939358846833
7	248590	30.95848258409	2.911230846833
7	249806	31.13656258409	3.049310846833
7	249887	31.14843458409	3.021182846833
7	249990	31.16361858409	2.996366846833
7	251112	31.32651458409	3.119262846833
7	251163	31.33507458409	3.007822846833
7	251336	31.35881858409	2.991566846833
7	252541	31.50128258409	3.094030846833
7	252813	31.52833858409	2.961086846833
7	254266	31.70779458409	3.100542846833
7	254447	31.72629058409	2.959038846833
7	256103	31.88862658409	3.081374846833
7	256244	31.90381058409	2.936558846833
7	256393	31.91899458409	2.911742846833
7	258536	32.14430658409	2.937054846833
7	258641	32.15286658409	2.905614846833
7	258696	32.16142658409	2.874174846833
7	258784	32.16998658409	2.842734846833
7	258865	32.17854658409	2.811294846833
7	260292	32.39917058409	2.951918846833
7	260371	32.40773058409	2.920478846833
7	260423	32.41629058409	2.889038846833
7	260529	32.43341058409	2.866158846833
7	260576	32.44197058409	2.834718846833
7	261798	32.61454658409	2.967294846833
7	261878	32.62310658409	2.935854846833
7	261972	32.64022658409	2.912974846833
7	262051	32.64878658409	2.881534846833
7	262103	32.65734658409	2.850094846833
7	262254	32.67446658409	2.827214846833
7	262310	32.68302658409	2.795774846833
7	264038	32.84398658409	2.916734846833
7	264126	32.85254658409	2.885294846833
7	264211	32.86110658409	2.853854846833
7	264242	32.86966658409	2.822414846833
7	264334	32.87822658409	2.790974846833
7	264393	32.88678658409	2.759534846833
7	264465	32.89534658409	2.728094846833
7	266096	33.08448258409	2.877230846833
7	266160	33.09304258409	2.845790846833
7	266223	33.10160258409	2.814350846833
7	266325	33.11872258409	2.791470846833
7	266384	33.12728258409	2.760030846833
7	266444	33.13584258409	2.728590846833
7	266503	33.14440258409	2.697150846833
7	267646	33.29598658409	2.808734846833
7	267701	33.30454658409	2.777294846833
7	267804	33.32166658409	2.754414846833
7	267874	33.33022658409	2.722974846833
7	267947	33.33878658409	2.691534846833
7	268053	33.35590658409	2.668654846833
7	268112	33.36446658409	2.637214846833
7	269251	33.51605058409	2.748798846833
7	269306	33.52461058409	2.717358846833
7	269370	33.53317058409	2.685918846833
7	269433	33.54173058409	2.654478846833
7	269535	33.55885058409	2.631598846833
7	269606	33.56741058409	2.600158846833
7	269658	33.57597058409	2.568718846833
7	270584	33.71705858409	2.669806846833
7	270635	33.72561858409	2.638366846833
7	270682	33.73417858409	2.606926846833
7	270737	33.74273858409	2.575486846833
7	270814	33.75985858409	2.552606846833
7	270885	33.76841858409	2.521166846833
7	270921	33.77697858409	2.489726846833
7	271884	33.93381058409	2.606558846833
7	271939	33.94237058409	2.575118846833
7	272016	33.95949058409	2.552238846833
7	272087	33.96805058409	2.520798846833
7	272119	33.97661058409	2.489358846833
7	272224	33.99373058409	2.466478846833
7	272274	34.00229058409	2.435038846833
7	273138	34.13481858409	2.527566846833
7	273193	34.14337858409	2.496126846833
7	273270	34.16049858409	2.473246846833
7	273341	34.16905858409	2.441806846833
7	273377	34.17761858409	2.410366846833
7	274354	34.31483458409	2.507582846833
7	274477	34.33001858409	2.482766846833
7	274655	34.35376258409	2.466510846833
7	275725	34.49291458409	2.565662846833
7	275928	34.51665858409	2.549406846833
7	277258	34.68011458409	2.672862846833
7	277406	34.69529858409	2.648046846833
7	278809	34.84825858409	2.761006846833
7	278963	34.86344258409	2.736190846833
7	279163	34.88718658409	2.719934846833
7	280612	35.05589058409	2.848638846833
7	280795	35.07963458409	2.832382846833
7	281959	35.23977858409	2.952526846833
7	282035	35.24833858409	2.921086846833
7	282067	35.25689858409	2.889646846833
7	282193	35.27401858409	2.866766846833
7	282241	35.28257858409	2.835326846833
7	282315	35.29113858409	2.803886846833
7	282388	35.29969858409	2.772446846833
7	283780	35.46177858409	2.894526846833
7	283890	35.47889858409	2.871646846833
7	283991	35.48745858409	2.840206846833
7	284023	35.49601858409	2.808766846833
7	284111	35.50457858409	2.777326846833
7	284246	35.52169858409	2.754446846833
7	284321	35.53025858409	2.723006846833
7	285467	35.65229058409	2.805038846833
7	285544	35.66085058409	2.773598846833
7	285687	35.67797058409	2.750718846833
7	285764	35.68653058409	2.719278846833
7	285822	35.69509058409	2.687838846833
7	285952	35.70365058409	2.656398846833
7	286161	35.72408258409	2.636830846833
7	287459	35.86405058409	2.736798846833
7	287578	35.88117058409	2.713918846833
7	287657	35.88973058409	2.682478846833
7	287730	35.89829058409	2.651038846833
7	287764	35.90685058409	2.619598846833
7	287819	35.91541058409	2.588158846833
7	287873	35.92397058409	2.556718846833
7	289137	36.08880258409	2.681550846833
7	289189	36.09736258409	2.650110846833
7	289315	36.11448258409	2.627230846833
7	289347	36.12304258409	2.595790846833
7	289417	36.13160258409	2.564350846833
7	289494	36.14016258409	2.532910846833
7	289623	36.15728258409	2.510030846833
7	290722	36.31411458409	2.626862846833
7	290749	36.32267458409	2.595422846833
7	290819	36.33123458409	2.563982846833
7	290875	36.33979458409	2.532542846833
7	290981	36.35691458409	2.509662846833
7	291067	36.36547458409	2.478222846833
7	291156	36.37734658409	2.450094846833
7	292809	36.55736258409	2.590110846833
7	292880	36.56592258409	2.558670846833
7	292952	36.57448258409	2.527230846833
7	293029	36.58304258409	2.495790846833
7	293089	36.59160258409	2.464350846833
7	293143	36.60016258409	2.432910846833
7	293271	36.60872258409	2.401470846833
7	294738	36.76443458409	2.517182846833
7	294810	36.77299458409	2.485742846833
7	294870	36.78155458409	2.454302846833
7	294922	36.79011458409	2.422862846833
7	294972	36.79867458409	2.391422846833
7	295040	36.80723458409	2.359982846833
7	295098	36.81579458409	2.328542846833
7	296544	36.97675458409	2.449502846833
7	296603	36.98531458409	2.418062846833
7	296699	36.99387458409	2.386622846833
7	296731	37.00243458409	2.355182846833
7	296818	37.01099458409	2.323742846833
7	296907	37.01955458409	2.292302846833
7	296981	37.02811458409	2.260862846833
7	298256	37.16808258409	2.360830846833
7	298308	37.17664258409	2.329390846833
7	298363	37.18520258409	2.297950846833
7	298434	37.19376258409	2.266510846833
7	298466	37.20232258409	2.235070846833
7	298540	37.21088258409	2.203630846833
7	298632	37.21944258409	2.172190846833
7	300020	37.36465858409	2.277406846833
7	300113	37.37321858409	2.245966846833
7	300172	37.38177858409	2.214526846833
7	300277	37.39365058409	2.186398846833
7	301638	37.58747458409	2.340222846833
7	301741	37.60265858409	2.315406846833
7	301861	37.61784258409	2.290590846833
7	303199	37.84315458409	2.475902846833
7	303347	37.85833858409	2.451086846833

